<additional xmlns:xsi="http://www.w3.org/2001/XMLSchema-instance" xsi:noNamespaceSchemaLocation="http://sumo.dlr.de/xsd/additional_file.xsd">
    <laneAreaDetector file="e2.output.xml" freq="60" friendlyPos="x" id="e2det--J1---E1---E1_0--s" lane="-E1_0" pos="153.50000000000003" length="200"/>
    <laneAreaDetector file="e2.output.xml" freq="60" friendlyPos="x" id="e2det--J1---E1---E1_1--s" lane="-E1_1" pos="153.50000000000003" length="200"/>
    <laneAreaDetector file="e2.output.xml" freq="60" friendlyPos="x" id="e2det--J1---E1---E1_2--s" lane="-E1_2" pos="153.50000000000003" length="200"/>
    <laneAreaDetector file="e2.output.xml" freq="60" friendlyPos="x" id="e2det--J1---E1---E1_3--l" lane="-E1_3" pos="153.50000000000003" length="200"/>
    <laneAreaDetector file="e2.output.xml" freq="60" friendlyPos="x" id="e2det--J1---E3---E3_0--r" lane="-E3_0" pos="134.98" length="200"/>
    <laneAreaDetector file="e2.output.xml" freq="60" friendlyPos="x" id="e2det--J1---E3---E3_1--l" lane="-E3_1" pos="134.98" length="200"/>
    <laneAreaDetector file="e2.output.xml" freq="60" friendlyPos="x" id="e2det--J1---E3---E3_2--l" lane="-E3_2" pos="134.98" length="200"/>
    <laneAreaDetector file="e2.output.xml" freq="60" friendlyPos="x" id="e2det--J1--E0--E0_0--r" lane="E0_0" pos="123.69000000000003" length="200"/>
    <laneAreaDetector file="e2.output.xml" freq="60" friendlyPos="x" id="e2det--J1--E0--E0_1--s" lane="E0_1" pos="123.69000000000003" length="200"/>
    <laneAreaDetector file="e2.output.xml" freq="60" friendlyPos="x" id="e2det--J1--E0--E0_2--s" lane="E0_2" pos="123.69000000000003" length="200"/>
    <laneAreaDetector file="e2.output.xml" freq="60" friendlyPos="x" id="e2det--J1--E0--E0_3--s" lane="E0_3" pos="123.69000000000003" length="200"/>
</additional>
