<?xml version="1.0" encoding="UTF-8"?>

<!-- generated on 2023-02-24 23:26:41 by Eclipse SUMO jtrrouter Version 1.15.0
<configuration xmlns:xsi="http://www.w3.org/2001/XMLSchema-instance" xsi:noNamespaceSchemaLocation="http://sumo.dlr.de/xsd/jtrrouterConfiguration.xsd">

    <input>
        <net-file value="/home/wmn/TrafficProject/AiolosZoo/TransformerTSCV2/SumoNets/./train_three_3/env/3phases.net.xml"/>
        <route-files value="/home/wmn/TrafficProject/AiolosZoo/TransformerTSCV2/SumoNets/./test.trip.xml"/>
        <turn-ratio-files value="/home/wmn/TrafficProject/AiolosZoo/TransformerTSCV2/SumoNets/./test.turndefs.xml"/>
    </input>

    <output>
        <output-file value="/home/wmn/TrafficProject/AiolosZoo/TransformerTSCV2/SumoNets/./train_three_3/routes/2.rou.xml"/>
    </output>

    <processing>
        <randomize-flows value="True"/>
        <accept-all-destinations value="True"/>
    </processing>

    <defaults>
        <departlane value="random"/>
    </defaults>

    <report>
        <no-warnings value="true"/>
    </report>

    <random_number>
        <seed value="10"/>
    </random_number>

</configuration>
-->

<routes xmlns:xsi="http://www.w3.org/2001/XMLSchema-instance" xsi:noNamespaceSchemaLocation="http://sumo.dlr.de/xsd/routes_file.xsd">
    <vType id="car_1" length="7.00" color="26,188,156" tau="1.0"/>
    <vehicle id="-E1__0.0" type="car_1" depart="9.22" departLane="random">
        <route edges="-E1 -E0"/>
    </vehicle>
    <vehicle id="-E3__0.0" type="car_1" depart="9.29" departLane="random">
        <route edges="-E3 -E0"/>
    </vehicle>
    <vehicle id="E0__0.0" type="car_1" depart="9.37" departLane="random">
        <route edges="E0 E1"/>
    </vehicle>
    <vehicle id="-E1__0.1" type="car_1" depart="10.20" departLane="random">
        <route edges="-E1 -E0"/>
    </vehicle>
    <vehicle id="-E3__0.1" type="car_1" depart="10.74" departLane="random">
        <route edges="-E3 -E0"/>
    </vehicle>
    <vehicle id="-E1__0.2" type="car_1" depart="16.24" departLane="random">
        <route edges="-E1 -E0"/>
    </vehicle>
    <vehicle id="E0__0.1" type="car_1" depart="17.67" departLane="random">
        <route edges="E0 E3"/>
    </vehicle>
    <vehicle id="-E1__0.3" type="car_1" depart="17.90" departLane="random">
        <route edges="-E1 -E0"/>
    </vehicle>
    <vehicle id="E0__0.2" type="car_1" depart="28.02" departLane="random">
        <route edges="E0 E1"/>
    </vehicle>
    <vehicle id="-E3__0.2" type="car_1" depart="28.71" departLane="random">
        <route edges="-E3 -E0"/>
    </vehicle>
    <vehicle id="E0__0.3" type="car_1" depart="29.20" departLane="random">
        <route edges="E0 E1"/>
    </vehicle>
    <vehicle id="-E3__0.3" type="car_1" depart="31.21" departLane="random">
        <route edges="-E3 -E0"/>
    </vehicle>
    <vehicle id="-E1__0.4" type="car_1" depart="37.60" departLane="random">
        <route edges="-E1 E3"/>
    </vehicle>
    <vehicle id="E0__0.4" type="car_1" depart="40.06" departLane="random">
        <route edges="E0 E1"/>
    </vehicle>
    <vehicle id="E0__0.5" type="car_1" depart="40.06" departLane="random">
        <route edges="E0 E3"/>
    </vehicle>
    <vehicle id="-E1__0.5" type="car_1" depart="42.91" departLane="random">
        <route edges="-E1 E3"/>
    </vehicle>
    <vehicle id="-E1__0.6" type="car_1" depart="43.00" departLane="random">
        <route edges="-E1 E3"/>
    </vehicle>
    <vehicle id="-E3__0.4" type="car_1" depart="48.55" departLane="random">
        <route edges="-E3 -E0"/>
    </vehicle>
    <vehicle id="E0__0.6" type="car_1" depart="50.50" departLane="random">
        <route edges="E0 E1"/>
    </vehicle>
    <vehicle id="-E3__0.5" type="car_1" depart="55.55" departLane="random">
        <route edges="-E3 E1"/>
    </vehicle>
    <vehicle id="-E3__1.0" type="car_1" depart="61.37" departLane="random">
        <route edges="-E3 -E0"/>
    </vehicle>
    <vType id="car_2" length="5.00" color="155,89,182" tau="1.0"/>
    <vehicle id="E0__1.0" type="car_2" depart="62.10" departLane="random">
        <route edges="E0 E3"/>
    </vehicle>
    <vehicle id="-E1__1.0" type="car_1" depart="66.90" departLane="random">
        <route edges="-E1 E3"/>
    </vehicle>
    <vehicle id="E0__1.1" type="car_2" depart="67.29" departLane="random">
        <route edges="E0 E1"/>
    </vehicle>
    <vehicle id="-E3__1.1" type="car_1" depart="68.28" departLane="random">
        <route edges="-E3 -E0"/>
    </vehicle>
    <vehicle id="-E1__1.1" type="car_1" depart="71.32" departLane="random">
        <route edges="-E1 E3"/>
    </vehicle>
    <vehicle id="-E1__1.2" type="car_1" depart="72.30" departLane="random">
        <route edges="-E1 -E0"/>
    </vehicle>
    <vehicle id="-E1__1.3" type="car_1" depart="74.00" departLane="random">
        <route edges="-E1 -E0"/>
    </vehicle>
    <vehicle id="-E1__1.4" type="car_1" depart="75.81" departLane="random">
        <route edges="-E1 -E0"/>
    </vehicle>
    <vehicle id="-E1__1.5" type="car_1" depart="76.05" departLane="random">
        <route edges="-E1 -E0"/>
    </vehicle>
    <vehicle id="-E3__1.2" type="car_1" depart="76.79" departLane="random">
        <route edges="-E3 -E0"/>
    </vehicle>
    <vehicle id="-E3__1.3" type="car_1" depart="77.04" departLane="random">
        <route edges="-E3 -E0"/>
    </vehicle>
    <vehicle id="-E1__1.6" type="car_1" depart="84.42" departLane="random">
        <route edges="-E1 -E0"/>
    </vehicle>
    <vehicle id="-E1__1.7" type="car_1" depart="85.55" departLane="random">
        <route edges="-E1 -E0"/>
    </vehicle>
    <vehicle id="-E1__1.8" type="car_1" depart="88.75" departLane="random">
        <route edges="-E1 -E0"/>
    </vehicle>
    <vehicle id="E0__1.2" type="car_2" depart="92.29" departLane="random">
        <route edges="E0 E1"/>
    </vehicle>
    <vehicle id="E0__1.3" type="car_2" depart="93.34" departLane="random">
        <route edges="E0 E1"/>
    </vehicle>
    <vehicle id="-E3__1.4" type="car_1" depart="95.47" departLane="random">
        <route edges="-E3 -E0"/>
    </vehicle>
    <vehicle id="E0__1.4" type="car_2" depart="96.18" departLane="random">
        <route edges="E0 E1"/>
    </vehicle>
    <vehicle id="-E3__1.5" type="car_1" depart="96.70" departLane="random">
        <route edges="-E3 -E0"/>
    </vehicle>
    <vehicle id="E0__1.5" type="car_2" depart="98.42" departLane="random">
        <route edges="E0 E1"/>
    </vehicle>
    <vehicle id="-E3__1.6" type="car_1" depart="100.26" departLane="random">
        <route edges="-E3 E1"/>
    </vehicle>
    <vehicle id="E0__1.6" type="car_2" depart="107.48" departLane="random">
        <route edges="E0 E1"/>
    </vehicle>
    <vehicle id="E0__1.7" type="car_2" depart="109.39" departLane="random">
        <route edges="E0 E1"/>
    </vehicle>
    <vehicle id="-E3__1.7" type="car_1" depart="110.56" departLane="random">
        <route edges="-E3 -E0"/>
    </vehicle>
    <vehicle id="E0__1.8" type="car_2" depart="111.60" departLane="random">
        <route edges="E0 E1"/>
    </vehicle>
    <vehicle id="E0__1.9" type="car_2" depart="113.60" departLane="random">
        <route edges="E0 E3"/>
    </vehicle>
    <vehicle id="-E3__2.0" type="car_1" depart="121.16" departLane="random">
        <route edges="-E3 E1"/>
    </vehicle>
    <vehicle id="-E1__2.0" type="car_1" depart="121.68" departLane="random">
        <route edges="-E1 -E0"/>
    </vehicle>
    <vehicle id="E0__2.0" type="car_1" depart="121.83" departLane="random">
        <route edges="E0 E3"/>
    </vehicle>
    <vehicle id="-E1__2.1" type="car_1" depart="125.19" departLane="random">
        <route edges="-E1 -E0"/>
    </vehicle>
    <vehicle id="E0__2.1" type="car_1" depart="127.06" departLane="random">
        <route edges="E0 E1"/>
    </vehicle>
    <vehicle id="-E1__2.2" type="car_1" depart="127.56" departLane="random">
        <route edges="-E1 E3"/>
    </vehicle>
    <vehicle id="E0__2.2" type="car_1" depart="128.29" departLane="random">
        <route edges="E0 E1"/>
    </vehicle>
    <vehicle id="E0__2.3" type="car_1" depart="133.98" departLane="random">
        <route edges="E0 E1"/>
    </vehicle>
    <vehicle id="-E3__2.1" type="car_1" depart="134.81" departLane="random">
        <route edges="-E3 -E0"/>
    </vehicle>
    <vehicle id="-E1__2.3" type="car_1" depart="135.43" departLane="random">
        <route edges="-E1 -E0"/>
    </vehicle>
    <vehicle id="-E3__2.2" type="car_1" depart="136.22" departLane="random">
        <route edges="-E3 E1"/>
    </vehicle>
    <vehicle id="-E3__2.3" type="car_1" depart="136.43" departLane="random">
        <route edges="-E3 -E0"/>
    </vehicle>
    <vehicle id="-E1__2.4" type="car_1" depart="137.01" departLane="random">
        <route edges="-E1 -E0"/>
    </vehicle>
    <vehicle id="-E1__2.5" type="car_1" depart="139.99" departLane="random">
        <route edges="-E1 E3"/>
    </vehicle>
    <vehicle id="E0__2.4" type="car_1" depart="140.88" departLane="random">
        <route edges="E0 E1"/>
    </vehicle>
    <vehicle id="-E1__2.6" type="car_1" depart="142.54" departLane="random">
        <route edges="-E1 E3"/>
    </vehicle>
    <vehicle id="-E3__2.4" type="car_1" depart="143.24" departLane="random">
        <route edges="-E3 E1"/>
    </vehicle>
    <vehicle id="-E3__2.5" type="car_1" depart="145.37" departLane="random">
        <route edges="-E3 -E0"/>
    </vehicle>
    <vehicle id="-E3__2.6" type="car_1" depart="146.03" departLane="random">
        <route edges="-E3 -E0"/>
    </vehicle>
    <vehicle id="E0__2.5" type="car_1" depart="148.18" departLane="random">
        <route edges="E0 E1"/>
    </vehicle>
    <vehicle id="-E1__2.7" type="car_1" depart="149.91" departLane="random">
        <route edges="-E1 E3"/>
    </vehicle>
    <vehicle id="-E1__2.8" type="car_1" depart="150.09" departLane="random">
        <route edges="-E1 E3"/>
    </vehicle>
    <vehicle id="E0__2.6" type="car_1" depart="151.55" departLane="random">
        <route edges="E0 E1"/>
    </vehicle>
    <vehicle id="E0__2.7" type="car_1" depart="155.42" departLane="random">
        <route edges="E0 E3"/>
    </vehicle>
    <vehicle id="-E3__2.7" type="car_1" depart="155.46" departLane="random">
        <route edges="-E3 -E0"/>
    </vehicle>
    <vehicle id="-E3__2.8" type="car_1" depart="159.71" departLane="random">
        <route edges="-E3 -E0"/>
    </vehicle>
    <vehicle id="E0__2.8" type="car_1" depart="163.77" departLane="random">
        <route edges="E0 E3"/>
    </vehicle>
    <vehicle id="-E1__2.9" type="car_1" depart="164.50" departLane="random">
        <route edges="-E1 -E0"/>
    </vehicle>
    <vehicle id="E0__2.9" type="car_1" depart="165.13" departLane="random">
        <route edges="E0 E3"/>
    </vehicle>
    <vehicle id="E0__2.10" type="car_1" depart="169.44" departLane="random">
        <route edges="E0 E1"/>
    </vehicle>
    <vehicle id="-E3__2.9" type="car_1" depart="171.96" departLane="random">
        <route edges="-E3 -E0"/>
    </vehicle>
    <vehicle id="-E1__2.10" type="car_1" depart="172.57" departLane="random">
        <route edges="-E1 E3"/>
    </vehicle>
    <vehicle id="E0__2.11" type="car_1" depart="179.80" departLane="random">
        <route edges="E0 E1"/>
    </vehicle>
    <vehicle id="-E1__3.0" type="car_1" depart="181.27" departLane="random">
        <route edges="-E1 -E0"/>
    </vehicle>
    <vehicle id="-E1__3.1" type="car_1" depart="181.53" departLane="random">
        <route edges="-E1 -E0"/>
    </vehicle>
    <vehicle id="-E3__3.0" type="car_1" depart="183.63" departLane="random">
        <route edges="-E3 -E0"/>
    </vehicle>
    <vehicle id="-E1__3.2" type="car_1" depart="184.58" departLane="random">
        <route edges="-E1 -E0"/>
    </vehicle>
    <vehicle id="E0__3.0" type="car_1" depart="187.35" departLane="random">
        <route edges="E0 E3"/>
    </vehicle>
    <vehicle id="E0__3.1" type="car_1" depart="189.58" departLane="random">
        <route edges="E0 E3"/>
    </vehicle>
    <vehicle id="E0__3.2" type="car_1" depart="190.03" departLane="random">
        <route edges="E0 E1"/>
    </vehicle>
    <vehicle id="-E1__3.3" type="car_1" depart="190.37" departLane="random">
        <route edges="-E1 -E0"/>
    </vehicle>
    <vehicle id="-E3__3.1" type="car_1" depart="193.90" departLane="random">
        <route edges="-E3 -E0"/>
    </vehicle>
    <vehicle id="-E1__3.4" type="car_1" depart="194.52" departLane="random">
        <route edges="-E1 -E0"/>
    </vehicle>
    <vehicle id="E0__3.3" type="car_1" depart="196.74" departLane="random">
        <route edges="E0 E1"/>
    </vehicle>
    <vehicle id="E0__3.4" type="car_1" depart="198.44" departLane="random">
        <route edges="E0 E3"/>
    </vehicle>
    <vehicle id="-E1__3.5" type="car_1" depart="199.03" departLane="random">
        <route edges="-E1 -E0"/>
    </vehicle>
    <vehicle id="-E3__3.2" type="car_1" depart="199.18" departLane="random">
        <route edges="-E3 -E0"/>
    </vehicle>
    <vehicle id="-E1__3.6" type="car_1" depart="201.26" departLane="random">
        <route edges="-E1 -E0"/>
    </vehicle>
    <vehicle id="-E3__3.3" type="car_1" depart="202.84" departLane="random">
        <route edges="-E3 E1"/>
    </vehicle>
    <vehicle id="-E3__3.4" type="car_1" depart="204.56" departLane="random">
        <route edges="-E3 -E0"/>
    </vehicle>
    <vehicle id="-E3__3.5" type="car_1" depart="210.63" departLane="random">
        <route edges="-E3 E1"/>
    </vehicle>
    <vehicle id="E0__3.5" type="car_1" depart="211.58" departLane="random">
        <route edges="E0 E3"/>
    </vehicle>
    <vehicle id="-E3__3.6" type="car_1" depart="217.61" departLane="random">
        <route edges="-E3 -E0"/>
    </vehicle>
    <vehicle id="E0__3.6" type="car_1" depart="218.74" departLane="random">
        <route edges="E0 E3"/>
    </vehicle>
    <vehicle id="-E1__3.7" type="car_1" depart="219.54" departLane="random">
        <route edges="-E1 -E0"/>
    </vehicle>
    <vehicle id="E0__3.7" type="car_1" depart="220.28" departLane="random">
        <route edges="E0 E1"/>
    </vehicle>
    <vehicle id="E0__3.8" type="car_1" depart="223.30" departLane="random">
        <route edges="E0 E1"/>
    </vehicle>
    <vehicle id="-E1__3.8" type="car_1" depart="227.84" departLane="random">
        <route edges="-E1 -E0"/>
    </vehicle>
    <vehicle id="E0__3.9" type="car_1" depart="227.89" departLane="random">
        <route edges="E0 E1"/>
    </vehicle>
    <vehicle id="E0__3.10" type="car_1" depart="228.59" departLane="random">
        <route edges="E0 E1"/>
    </vehicle>
    <vehicle id="-E3__3.7" type="car_1" depart="229.38" departLane="random">
        <route edges="-E3 E1"/>
    </vehicle>
    <vehicle id="-E3__3.8" type="car_1" depart="231.56" departLane="random">
        <route edges="-E3 -E0"/>
    </vehicle>
    <vehicle id="-E3__3.9" type="car_1" depart="231.76" departLane="random">
        <route edges="-E3 E1"/>
    </vehicle>
    <vehicle id="E0__3.11" type="car_1" depart="231.86" departLane="random">
        <route edges="E0 E1"/>
    </vehicle>
    <vehicle id="-E3__3.10" type="car_1" depart="232.02" departLane="random">
        <route edges="-E3 -E0"/>
    </vehicle>
    <vehicle id="-E1__3.9" type="car_1" depart="232.22" departLane="random">
        <route edges="-E1 E3"/>
    </vehicle>
    <vehicle id="-E1__3.10" type="car_1" depart="237.41" departLane="random">
        <route edges="-E1 -E0"/>
    </vehicle>
    <vehicle id="-E1__3.11" type="car_1" depart="238.89" departLane="random">
        <route edges="-E1 -E0"/>
    </vehicle>
    <vehicle id="E0__3.12" type="car_1" depart="239.46" departLane="random">
        <route edges="E0 E3"/>
    </vehicle>
    <vehicle id="E0__4.0" type="car_1" depart="241.36" departLane="random">
        <route edges="E0 E1"/>
    </vehicle>
    <vehicle id="-E1__4.0" type="car_2" depart="246.30" departLane="random">
        <route edges="-E1 E3"/>
    </vehicle>
    <vehicle id="-E1__4.1" type="car_2" depart="247.12" departLane="random">
        <route edges="-E1 E3"/>
    </vehicle>
    <vehicle id="E0__4.1" type="car_1" depart="251.32" departLane="random">
        <route edges="E0 E1"/>
    </vehicle>
    <vehicle id="-E3__4.0" type="car_2" depart="251.75" departLane="random">
        <route edges="-E3 -E0"/>
    </vehicle>
    <vehicle id="E0__4.2" type="car_1" depart="254.87" departLane="random">
        <route edges="E0 E3"/>
    </vehicle>
    <vehicle id="E0__4.3" type="car_1" depart="254.98" departLane="random">
        <route edges="E0 E3"/>
    </vehicle>
    <vehicle id="E0__4.4" type="car_1" depart="257.30" departLane="random">
        <route edges="E0 E3"/>
    </vehicle>
    <vehicle id="-E1__4.2" type="car_2" depart="257.59" departLane="random">
        <route edges="-E1 E3"/>
    </vehicle>
    <vehicle id="-E3__4.1" type="car_2" depart="258.57" departLane="random">
        <route edges="-E3 E1"/>
    </vehicle>
    <vehicle id="E0__4.5" type="car_1" depart="259.23" departLane="random">
        <route edges="E0 E1"/>
    </vehicle>
    <vehicle id="-E1__4.3" type="car_2" depart="260.86" departLane="random">
        <route edges="-E1 -E0"/>
    </vehicle>
    <vehicle id="E0__4.6" type="car_1" depart="264.23" departLane="random">
        <route edges="E0 E1"/>
    </vehicle>
    <vehicle id="-E3__4.2" type="car_2" depart="264.44" departLane="random">
        <route edges="-E3 -E0"/>
    </vehicle>
    <vehicle id="-E3__4.3" type="car_2" depart="268.61" departLane="random">
        <route edges="-E3 E1"/>
    </vehicle>
    <vehicle id="E0__4.7" type="car_1" depart="268.63" departLane="random">
        <route edges="E0 E3"/>
    </vehicle>
    <vehicle id="-E3__4.4" type="car_2" depart="269.30" departLane="random">
        <route edges="-E3 E1"/>
    </vehicle>
    <vehicle id="-E1__4.4" type="car_2" depart="270.15" departLane="random">
        <route edges="-E1 E3"/>
    </vehicle>
    <vehicle id="E0__4.8" type="car_1" depart="270.32" departLane="random">
        <route edges="E0 E1"/>
    </vehicle>
    <vehicle id="E0__4.9" type="car_1" depart="272.08" departLane="random">
        <route edges="E0 E1"/>
    </vehicle>
    <vehicle id="E0__4.10" type="car_1" depart="274.31" departLane="random">
        <route edges="E0 E3"/>
    </vehicle>
    <vehicle id="-E1__4.5" type="car_2" depart="274.85" departLane="random">
        <route edges="-E1 -E0"/>
    </vehicle>
    <vehicle id="-E3__4.5" type="car_2" depart="275.07" departLane="random">
        <route edges="-E3 -E0"/>
    </vehicle>
    <vehicle id="-E1__4.6" type="car_2" depart="276.61" departLane="random">
        <route edges="-E1 -E0"/>
    </vehicle>
    <vehicle id="-E1__4.7" type="car_2" depart="277.01" departLane="random">
        <route edges="-E1 -E0"/>
    </vehicle>
    <vehicle id="-E1__4.8" type="car_2" depart="277.64" departLane="random">
        <route edges="-E1 E3"/>
    </vehicle>
    <vehicle id="-E1__4.9" type="car_2" depart="278.15" departLane="random">
        <route edges="-E1 E3"/>
    </vehicle>
    <vehicle id="-E1__4.10" type="car_2" depart="278.60" departLane="random">
        <route edges="-E1 -E0"/>
    </vehicle>
    <vehicle id="E0__4.11" type="car_1" depart="280.72" departLane="random">
        <route edges="E0 E3"/>
    </vehicle>
    <vehicle id="-E3__4.6" type="car_2" depart="286.59" departLane="random">
        <route edges="-E3 -E0"/>
    </vehicle>
    <vehicle id="-E1__4.11" type="car_2" depart="286.60" departLane="random">
        <route edges="-E1 -E0"/>
    </vehicle>
    <vehicle id="E0__4.12" type="car_1" depart="287.82" departLane="random">
        <route edges="E0 E3"/>
    </vehicle>
    <vehicle id="E0__4.13" type="car_1" depart="288.65" departLane="random">
        <route edges="E0 E3"/>
    </vehicle>
    <vehicle id="-E1__4.12" type="car_2" depart="290.16" departLane="random">
        <route edges="-E1 -E0"/>
    </vehicle>
    <vehicle id="-E3__4.7" type="car_2" depart="295.63" departLane="random">
        <route edges="-E3 -E0"/>
    </vehicle>
    <vehicle id="-E3__4.8" type="car_2" depart="296.29" departLane="random">
        <route edges="-E3 -E0"/>
    </vehicle>
    <vehicle id="-E3__4.9" type="car_2" depart="297.12" departLane="random">
        <route edges="-E3 E1"/>
    </vehicle>
    <vehicle id="-E3__4.10" type="car_2" depart="298.00" departLane="random">
        <route edges="-E3 -E0"/>
    </vehicle>
    <vehicle id="-E3__4.11" type="car_2" depart="299.38" departLane="random">
        <route edges="-E3 E1"/>
    </vehicle>
    <vehicle id="-E3__5.0" type="car_1" depart="301.13" departLane="random">
        <route edges="-E3 -E0"/>
    </vehicle>
    <vehicle id="-E1__5.0" type="car_1" depart="301.46" departLane="random">
        <route edges="-E1 -E0"/>
    </vehicle>
    <vehicle id="-E1__5.1" type="car_1" depart="302.77" departLane="random">
        <route edges="-E1 -E0"/>
    </vehicle>
    <vehicle id="E0__5.0" type="car_1" depart="304.45" departLane="random">
        <route edges="E0 E3"/>
    </vehicle>
    <vehicle id="E0__5.1" type="car_1" depart="304.53" departLane="random">
        <route edges="E0 E3"/>
    </vehicle>
    <vehicle id="E0__5.2" type="car_1" depart="307.09" departLane="random">
        <route edges="E0 E1"/>
    </vehicle>
    <vehicle id="-E3__5.1" type="car_1" depart="310.80" departLane="random">
        <route edges="-E3 -E0"/>
    </vehicle>
    <vehicle id="-E1__5.2" type="car_1" depart="311.64" departLane="random">
        <route edges="-E1 -E0"/>
    </vehicle>
    <vehicle id="-E1__5.3" type="car_1" depart="311.65" departLane="random">
        <route edges="-E1 -E0"/>
    </vehicle>
    <vehicle id="-E3__5.2" type="car_1" depart="311.94" departLane="random">
        <route edges="-E3 -E0"/>
    </vehicle>
    <vehicle id="E0__5.3" type="car_1" depart="312.22" departLane="random">
        <route edges="E0 E1"/>
    </vehicle>
    <vehicle id="E0__5.4" type="car_1" depart="312.33" departLane="random">
        <route edges="E0 E1"/>
    </vehicle>
    <vehicle id="-E1__5.4" type="car_1" depart="314.66" departLane="random">
        <route edges="-E1 E3"/>
    </vehicle>
    <vehicle id="-E3__5.3" type="car_1" depart="314.66" departLane="random">
        <route edges="-E3 -E0"/>
    </vehicle>
    <vehicle id="E0__5.5" type="car_1" depart="318.22" departLane="random">
        <route edges="E0 E1"/>
    </vehicle>
    <vehicle id="E0__5.6" type="car_1" depart="318.65" departLane="random">
        <route edges="E0 E1"/>
    </vehicle>
    <vehicle id="-E3__5.4" type="car_1" depart="318.90" departLane="random">
        <route edges="-E3 -E0"/>
    </vehicle>
    <vehicle id="-E3__5.5" type="car_1" depart="320.94" departLane="random">
        <route edges="-E3 E1"/>
    </vehicle>
    <vehicle id="E0__5.7" type="car_1" depart="322.51" departLane="random">
        <route edges="E0 E1"/>
    </vehicle>
    <vehicle id="-E3__5.6" type="car_1" depart="323.56" departLane="random">
        <route edges="-E3 -E0"/>
    </vehicle>
    <vehicle id="-E3__5.7" type="car_1" depart="324.63" departLane="random">
        <route edges="-E3 -E0"/>
    </vehicle>
    <vehicle id="E0__5.8" type="car_1" depart="328.11" departLane="random">
        <route edges="E0 E1"/>
    </vehicle>
    <vehicle id="E0__5.9" type="car_1" depart="329.35" departLane="random">
        <route edges="E0 E1"/>
    </vehicle>
    <vehicle id="E0__5.10" type="car_1" depart="330.62" departLane="random">
        <route edges="E0 E3"/>
    </vehicle>
    <vehicle id="-E3__5.8" type="car_1" depart="332.27" departLane="random">
        <route edges="-E3 -E0"/>
    </vehicle>
    <vehicle id="-E1__5.5" type="car_1" depart="333.64" departLane="random">
        <route edges="-E1 -E0"/>
    </vehicle>
    <vehicle id="E0__5.11" type="car_1" depart="334.30" departLane="random">
        <route edges="E0 E1"/>
    </vehicle>
    <vehicle id="-E1__5.6" type="car_1" depart="335.93" departLane="random">
        <route edges="-E1 -E0"/>
    </vehicle>
    <vehicle id="E0__5.12" type="car_1" depart="337.51" departLane="random">
        <route edges="E0 E1"/>
    </vehicle>
    <vehicle id="-E1__5.7" type="car_1" depart="338.44" departLane="random">
        <route edges="-E1 E3"/>
    </vehicle>
    <vehicle id="-E1__5.8" type="car_1" depart="339.73" departLane="random">
        <route edges="-E1 E3"/>
    </vehicle>
    <vehicle id="-E3__5.9" type="car_1" depart="342.80" departLane="random">
        <route edges="-E3 -E0"/>
    </vehicle>
    <vehicle id="-E3__5.10" type="car_1" depart="345.65" departLane="random">
        <route edges="-E3 -E0"/>
    </vehicle>
    <vehicle id="-E1__5.9" type="car_1" depart="347.12" departLane="random">
        <route edges="-E1 E3"/>
    </vehicle>
    <vehicle id="E0__5.13" type="car_1" depart="347.27" departLane="random">
        <route edges="E0 E1"/>
    </vehicle>
    <vehicle id="-E3__5.11" type="car_1" depart="351.08" departLane="random">
        <route edges="-E3 -E0"/>
    </vehicle>
    <vehicle id="-E1__5.10" type="car_1" depart="352.72" departLane="random">
        <route edges="-E1 E3"/>
    </vehicle>
    <vehicle id="E0__5.14" type="car_1" depart="353.59" departLane="random">
        <route edges="E0 E3"/>
    </vehicle>
    <vehicle id="-E3__5.12" type="car_1" depart="356.22" departLane="random">
        <route edges="-E3 -E0"/>
    </vehicle>
    <vehicle id="-E1__5.11" type="car_1" depart="356.77" departLane="random">
        <route edges="-E1 E3"/>
    </vehicle>
    <vehicle id="-E1__5.12" type="car_1" depart="358.55" departLane="random">
        <route edges="-E1 E3"/>
    </vehicle>
    <vehicle id="-E1__6.0" type="car_1" depart="362.61" departLane="random">
        <route edges="-E1 E3"/>
    </vehicle>
    <vehicle id="E0__6.0" type="car_1" depart="362.85" departLane="random">
        <route edges="E0 E1"/>
    </vehicle>
    <vehicle id="E0__6.1" type="car_1" depart="364.21" departLane="random">
        <route edges="E0 E1"/>
    </vehicle>
    <vehicle id="E0__6.2" type="car_1" depart="366.12" departLane="random">
        <route edges="E0 E3"/>
    </vehicle>
    <vehicle id="E0__6.3" type="car_1" depart="367.93" departLane="random">
        <route edges="E0 E1"/>
    </vehicle>
    <vehicle id="-E3__6.0" type="car_1" depart="372.80" departLane="random">
        <route edges="-E3 -E0"/>
    </vehicle>
    <vehicle id="E0__6.4" type="car_1" depart="375.40" departLane="random">
        <route edges="E0 E1"/>
    </vehicle>
    <vehicle id="-E3__6.1" type="car_1" depart="376.84" departLane="random">
        <route edges="-E3 -E0"/>
    </vehicle>
    <vehicle id="-E3__6.2" type="car_1" depart="379.26" departLane="random">
        <route edges="-E3 -E0"/>
    </vehicle>
    <vehicle id="E0__6.5" type="car_1" depart="380.01" departLane="random">
        <route edges="E0 E1"/>
    </vehicle>
    <vehicle id="E0__6.6" type="car_1" depart="381.89" departLane="random">
        <route edges="E0 E1"/>
    </vehicle>
    <vehicle id="-E1__6.1" type="car_1" depart="382.86" departLane="random">
        <route edges="-E1 -E0"/>
    </vehicle>
    <vehicle id="E0__6.7" type="car_1" depart="383.02" departLane="random">
        <route edges="E0 E3"/>
    </vehicle>
    <vehicle id="-E1__6.2" type="car_1" depart="384.89" departLane="random">
        <route edges="-E1 -E0"/>
    </vehicle>
    <vehicle id="-E1__6.3" type="car_1" depart="385.03" departLane="random">
        <route edges="-E1 -E0"/>
    </vehicle>
    <vehicle id="-E3__6.3" type="car_1" depart="385.80" departLane="random">
        <route edges="-E3 -E0"/>
    </vehicle>
    <vehicle id="-E1__6.4" type="car_1" depart="387.02" departLane="random">
        <route edges="-E1 -E0"/>
    </vehicle>
    <vehicle id="E0__6.8" type="car_1" depart="389.04" departLane="random">
        <route edges="E0 E1"/>
    </vehicle>
    <vehicle id="-E1__6.5" type="car_1" depart="389.22" departLane="random">
        <route edges="-E1 E3"/>
    </vehicle>
    <vehicle id="-E1__6.6" type="car_1" depart="389.33" departLane="random">
        <route edges="-E1 -E0"/>
    </vehicle>
    <vehicle id="-E3__6.4" type="car_1" depart="390.06" departLane="random">
        <route edges="-E3 -E0"/>
    </vehicle>
    <vehicle id="E0__6.9" type="car_1" depart="392.22" departLane="random">
        <route edges="E0 E1"/>
    </vehicle>
    <vehicle id="-E3__6.5" type="car_1" depart="393.94" departLane="random">
        <route edges="-E3 -E0"/>
    </vehicle>
    <vehicle id="-E3__6.6" type="car_1" depart="394.36" departLane="random">
        <route edges="-E3 -E0"/>
    </vehicle>
    <vehicle id="-E1__6.7" type="car_1" depart="395.66" departLane="random">
        <route edges="-E1 E3"/>
    </vehicle>
    <vehicle id="E0__6.10" type="car_1" depart="398.09" departLane="random">
        <route edges="E0 E3"/>
    </vehicle>
    <vehicle id="-E3__6.7" type="car_1" depart="398.58" departLane="random">
        <route edges="-E3 -E0"/>
    </vehicle>
    <vehicle id="-E3__6.8" type="car_1" depart="400.33" departLane="random">
        <route edges="-E3 E1"/>
    </vehicle>
    <vehicle id="-E1__6.8" type="car_1" depart="400.93" departLane="random">
        <route edges="-E1 E3"/>
    </vehicle>
    <vehicle id="E0__6.11" type="car_1" depart="401.86" departLane="random">
        <route edges="E0 E1"/>
    </vehicle>
    <vehicle id="-E3__6.9" type="car_1" depart="402.30" departLane="random">
        <route edges="-E3 -E0"/>
    </vehicle>
    <vehicle id="-E1__6.9" type="car_1" depart="405.18" departLane="random">
        <route edges="-E1 -E0"/>
    </vehicle>
    <vehicle id="E0__6.12" type="car_1" depart="407.51" departLane="random">
        <route edges="E0 E1"/>
    </vehicle>
    <vehicle id="-E1__6.10" type="car_1" depart="412.65" departLane="random">
        <route edges="-E1 E3"/>
    </vehicle>
    <vehicle id="-E1__6.11" type="car_1" depart="412.76" departLane="random">
        <route edges="-E1 E3"/>
    </vehicle>