<?xml version="1.0" encoding="UTF-8"?>

<!-- generated on 2023-02-24 23:26:28 by Eclipse SUMO jtrrouter Version 1.15.0
<configuration xmlns:xsi="http://www.w3.org/2001/XMLSchema-instance" xsi:noNamespaceSchemaLocation="http://sumo.dlr.de/xsd/jtrrouterConfiguration.xsd">

    <input>
        <net-file value="/home/wmn/TrafficProject/AiolosZoo/TransformerTSCV2/SumoNets/./train_four_3/env/2phases.net.xml"/>
        <route-files value="/home/wmn/TrafficProject/AiolosZoo/TransformerTSCV2/SumoNets/./test.trip.xml"/>
        <turn-ratio-files value="/home/wmn/TrafficProject/AiolosZoo/TransformerTSCV2/SumoNets/./test.turndefs.xml"/>
    </input>

    <output>
        <output-file value="/home/wmn/TrafficProject/AiolosZoo/TransformerTSCV2/SumoNets/./train_four_3/routes/0.rou.xml"/>
    </output>

    <processing>
        <randomize-flows value="True"/>
        <accept-all-destinations value="True"/>
    </processing>

    <defaults>
        <departlane value="random"/>
    </defaults>

    <report>
        <no-warnings value="true"/>
    </report>

    <random_number>
        <seed value="10"/>
    </random_number>

</configuration>
-->

<routes xmlns:xsi="http://www.w3.org/2001/XMLSchema-instance" xsi:noNamespaceSchemaLocation="http://sumo.dlr.de/xsd/routes_file.xsd">
    <vType id="car_1" length="7.00" color="26,188,156" tau="1.0"/>
    <vehicle id="-E3__0.0" type="car_1" depart="2.10" departLane="random">
        <route edges="-E3 E1"/>
    </vehicle>
    <vehicle id="-E1__0.0" type="car_1" depart="9.22" departLane="random">
        <route edges="-E1 -E0"/>
    </vehicle>
    <vehicle id="-E1__0.1" type="car_1" depart="9.29" departLane="random">
        <route edges="-E1 -E0"/>
    </vehicle>
    <vehicle id="-E2__0.0" type="car_1" depart="9.37" departLane="random">
        <route edges="-E2 E3"/>
    </vehicle>
    <vehicle id="-E2__0.1" type="car_1" depart="10.20" departLane="random">
        <route edges="-E2 -E0"/>
    </vehicle>
    <vehicle id="-E1__0.2" type="car_1" depart="10.74" departLane="random">
        <route edges="-E1 -E0"/>
    </vehicle>
    <vehicle id="-E2__0.2" type="car_1" depart="16.24" departLane="random">
        <route edges="-E2 E1"/>
    </vehicle>
    <vType id="car_2" length="5.00" color="155,89,182" tau="1.0"/>
    <vehicle id="E0__0.0" type="car_2" depart="17.67" departLane="random">
        <route edges="E0 E1"/>
    </vehicle>
    <vehicle id="-E2__0.3" type="car_1" depart="17.90" departLane="random">
        <route edges="-E2 E1"/>
    </vehicle>
    <vehicle id="E0__0.1" type="car_2" depart="28.02" departLane="random">
        <route edges="E0 E1"/>
    </vehicle>
    <vehicle id="-E1__0.3" type="car_1" depart="28.71" departLane="random">
        <route edges="-E1 E2"/>
    </vehicle>
    <vehicle id="E0__0.2" type="car_2" depart="29.20" departLane="random">
        <route edges="E0 E2"/>
    </vehicle>
    <vehicle id="-E1__0.4" type="car_1" depart="31.21" departLane="random">
        <route edges="-E1 E2"/>
    </vehicle>
    <vehicle id="-E2__0.4" type="car_1" depart="37.60" departLane="random">
        <route edges="-E2 E1"/>
    </vehicle>
    <vehicle id="-E3__0.1" type="car_1" depart="38.42" departLane="random">
        <route edges="-E3 E2"/>
    </vehicle>
    <vehicle id="E0__0.3" type="car_2" depart="40.06" departLane="random">
        <route edges="E0 E2"/>
    </vehicle>
    <vehicle id="E0__0.4" type="car_2" depart="40.06" departLane="random">
        <route edges="E0 E1"/>
    </vehicle>
    <vehicle id="-E2__0.5" type="car_1" depart="42.91" departLane="random">
        <route edges="-E2 -E0"/>
    </vehicle>
    <vehicle id="-E1__0.5" type="car_1" depart="43.00" departLane="random">
        <route edges="-E1 -E0"/>
    </vehicle>
    <vehicle id="-E3__0.2" type="car_1" depart="47.48" departLane="random">
        <route edges="-E3 E2"/>
    </vehicle>
    <vehicle id="-E3__0.3" type="car_1" depart="48.55" departLane="random">
        <route edges="-E3 E2"/>
    </vehicle>
    <vehicle id="-E3__0.4" type="car_1" depart="49.39" departLane="random">
        <route edges="-E3 E2"/>
    </vehicle>
    <vehicle id="E0__0.5" type="car_2" depart="50.50" departLane="random">
        <route edges="E0 E1"/>
    </vehicle>
    <vehicle id="-E3__0.5" type="car_1" depart="51.60" departLane="random">
        <route edges="-E3 E2"/>
    </vehicle>
    <vehicle id="-E3__0.6" type="car_1" depart="53.60" departLane="random">
        <route edges="-E3 E2"/>
    </vehicle>
    <vehicle id="-E1__0.6" type="car_1" depart="55.55" departLane="random">
        <route edges="-E1 -E0"/>
    </vehicle>
    <vehicle id="-E1__1.0" type="car_1" depart="61.37" departLane="random">
        <route edges="-E1 E3"/>
    </vehicle>
    <vehicle id="-E1__1.1" type="car_1" depart="61.83" departLane="random">
        <route edges="-E1 -E0"/>
    </vehicle>
    <vehicle id="-E2__1.0" type="car_1" depart="66.90" departLane="random">
        <route edges="-E2 E3"/>
    </vehicle>
    <vehicle id="-E3__1.0" type="car_1" depart="67.06" departLane="random">
        <route edges="-E3 E1"/>
    </vehicle>
    <vehicle id="E0__1.0" type="car_1" depart="67.29" departLane="random">
        <route edges="E0 E1"/>
    </vehicle>
    <vehicle id="-E1__1.2" type="car_1" depart="68.28" departLane="random">
        <route edges="-E1 E3"/>
    </vehicle>
    <vehicle id="-E3__1.1" type="car_1" depart="68.29" departLane="random">
        <route edges="-E3 E2"/>
    </vehicle>
    <vehicle id="-E2__1.1" type="car_1" depart="71.32" departLane="random">
        <route edges="-E2 E3"/>
    </vehicle>
    <vehicle id="-E2__1.2" type="car_1" depart="72.30" departLane="random">
        <route edges="-E2 E3"/>
    </vehicle>
    <vehicle id="-E3__1.2" type="car_1" depart="73.98" departLane="random">
        <route edges="-E3 -E0"/>
    </vehicle>
    <vehicle id="E0__1.1" type="car_1" depart="74.00" departLane="random">
        <route edges="E0 E3"/>
    </vehicle>
    <vehicle id="-E3__1.3" type="car_1" depart="75.43" departLane="random">
        <route edges="-E3 E2"/>
    </vehicle>
    <vehicle id="-E2__1.3" type="car_1" depart="75.81" departLane="random">
        <route edges="-E2 -E0"/>
    </vehicle>
    <vehicle id="E0__1.2" type="car_1" depart="76.05" departLane="random">
        <route edges="E0 E1"/>
    </vehicle>
    <vehicle id="-E2__1.4" type="car_1" depart="76.79" departLane="random">
        <route edges="-E2 E3"/>
    </vehicle>
    <vehicle id="-E2__1.5" type="car_1" depart="77.04" departLane="random">
        <route edges="-E2 E3"/>
    </vehicle>
    <vehicle id="-E3__1.4" type="car_1" depart="80.88" departLane="random">
        <route edges="-E3 E2"/>
    </vehicle>
    <vehicle id="E0__1.3" type="car_1" depart="84.42" departLane="random">
        <route edges="E0 E1"/>
    </vehicle>
    <vehicle id="E0__1.4" type="car_1" depart="85.55" departLane="random">
        <route edges="E0 E2"/>
    </vehicle>
    <vehicle id="-E3__1.5" type="car_1" depart="88.18" departLane="random">
        <route edges="-E3 E2"/>
    </vehicle>
    <vehicle id="-E2__1.6" type="car_1" depart="88.75" departLane="random">
        <route edges="-E2 E3"/>
    </vehicle>
    <vehicle id="-E1__1.3" type="car_1" depart="91.55" departLane="random">
        <route edges="-E1 E2"/>
    </vehicle>
    <vehicle id="E0__1.5" type="car_1" depart="92.29" departLane="random">
        <route edges="E0 E1"/>
    </vehicle>
    <vehicle id="E0__1.6" type="car_1" depart="93.34" departLane="random">
        <route edges="E0 E3"/>
    </vehicle>
    <vehicle id="-E3__1.6" type="car_1" depart="95.42" departLane="random">
        <route edges="-E3 E1"/>
    </vehicle>
    <vehicle id="-E1__1.4" type="car_1" depart="95.47" departLane="random">
        <route edges="-E1 -E0"/>
    </vehicle>
    <vehicle id="E0__1.7" type="car_1" depart="96.18" departLane="random">
        <route edges="E0 E1"/>
    </vehicle>
    <vehicle id="-E1__1.5" type="car_1" depart="96.70" departLane="random">
        <route edges="-E1 -E0"/>
    </vehicle>
    <vehicle id="-E1__1.6" type="car_1" depart="100.26" departLane="random">
        <route edges="-E1 -E0"/>
    </vehicle>
    <vehicle id="-E3__1.7" type="car_1" depart="103.77" departLane="random">
        <route edges="-E3 E2"/>
    </vehicle>
    <vehicle id="-E3__1.8" type="car_1" depart="105.13" departLane="random">
        <route edges="-E3 E2"/>
    </vehicle>
    <vehicle id="-E1__1.7" type="car_1" depart="109.44" departLane="random">
        <route edges="-E1 -E0"/>
    </vehicle>
    <vehicle id="-E2__1.7" type="car_1" depart="110.56" departLane="random">
        <route edges="-E2 E3"/>
    </vehicle>
    <vehicle id="-E3__1.9" type="car_1" depart="119.80" departLane="random">
        <route edges="-E3 E2"/>
    </vehicle>
    <vehicle id="-E2__2.0" type="car_1" depart="121.16" departLane="random">
        <route edges="-E2 -E0"/>
    </vehicle>
    <vehicle id="-E3__2.0" type="car_1" depart="121.27" departLane="random">
        <route edges="-E3 E1"/>
    </vehicle>
    <vehicle id="-E2__2.1" type="car_1" depart="121.68" departLane="random">
        <route edges="-E2 -E0"/>
    </vehicle>
    <vehicle id="E0__2.0" type="car_1" depart="125.19" departLane="random">
        <route edges="E0 E1"/>
    </vehicle>
    <vehicle id="-E1__2.0" type="car_1" depart="127.35" departLane="random">
        <route edges="-E1 -E0"/>
    </vehicle>
    <vehicle id="E0__2.1" type="car_1" depart="127.56" departLane="random">
        <route edges="E0 E3"/>
    </vehicle>
    <vehicle id="-E1__2.1" type="car_1" depart="129.58" departLane="random">
        <route edges="-E1 -E0"/>
    </vehicle>
    <vehicle id="-E1__2.2" type="car_1" depart="130.03" departLane="random">
        <route edges="-E1 -E0"/>
    </vehicle>
    <vehicle id="-E3__2.1" type="car_1" depart="130.37" departLane="random">
        <route edges="-E3 -E0"/>
    </vehicle>
    <vehicle id="-E2__2.2" type="car_1" depart="134.81" departLane="random">
        <route edges="-E2 E3"/>
    </vehicle>
    <vehicle id="-E2__2.3" type="car_1" depart="136.22" departLane="random">
        <route edges="-E2 E3"/>
    </vehicle>
    <vehicle id="-E1__2.3" type="car_1" depart="136.43" departLane="random">
        <route edges="-E1 -E0"/>
    </vehicle>
    <vehicle id="-E3__2.2" type="car_1" depart="136.74" departLane="random">
        <route edges="-E3 E1"/>
    </vehicle>
    <vehicle id="E0__2.2" type="car_1" depart="137.01" departLane="random">
        <route edges="E0 E1"/>
    </vehicle>
    <vehicle id="-E1__2.4" type="car_1" depart="138.44" departLane="random">
        <route edges="-E1 -E0"/>
    </vehicle>
    <vehicle id="-E3__2.3" type="car_1" depart="139.03" departLane="random">
        <route edges="-E3 -E0"/>
    </vehicle>
    <vehicle id="E0__2.3" type="car_1" depart="139.99" departLane="random">
        <route edges="E0 E2"/>
    </vehicle>
    <vehicle id="E0__2.4" type="car_1" depart="142.54" departLane="random">
        <route edges="E0 E1"/>
    </vehicle>
    <vehicle id="-E2__2.4" type="car_1" depart="143.24" departLane="random">
        <route edges="-E2 -E0"/>
    </vehicle>
    <vehicle id="-E2__2.5" type="car_1" depart="145.37" departLane="random">
        <route edges="-E2 E3"/>
    </vehicle>
    <vehicle id="-E2__2.6" type="car_1" depart="146.03" departLane="random">
        <route edges="-E2 E3"/>
    </vehicle>
    <vehicle id="E0__2.5" type="car_1" depart="149.91" departLane="random">
        <route edges="E0 E1"/>
    </vehicle>
    <vehicle id="E0__2.6" type="car_1" depart="150.09" departLane="random">
        <route edges="E0 E1"/>
    </vehicle>
    <vehicle id="-E3__2.4" type="car_1" depart="151.58" departLane="random">
        <route edges="-E3 E2"/>
    </vehicle>
    <vehicle id="-E1__2.5" type="car_1" depart="155.46" departLane="random">
        <route edges="-E1 E2"/>
    </vehicle>
    <vehicle id="-E1__2.6" type="car_1" depart="158.74" departLane="random">
        <route edges="-E1 E3"/>
    </vehicle>
    <vehicle id="-E3__2.5" type="car_1" depart="159.54" departLane="random">
        <route edges="-E3 -E0"/>
    </vehicle>
    <vehicle id="-E2__2.7" type="car_1" depart="159.71" departLane="random">
        <route edges="-E2 E3"/>
    </vehicle>
    <vehicle id="-E1__2.7" type="car_1" depart="160.28" departLane="random">
        <route edges="-E1 -E0"/>
    </vehicle>
    <vehicle id="-E1__2.8" type="car_1" depart="163.30" departLane="random">
        <route edges="-E1 E2"/>
    </vehicle>
    <vehicle id="E0__2.7" type="car_1" depart="164.50" departLane="random">
        <route edges="E0 E2"/>
    </vehicle>
    <vehicle id="-E3__2.6" type="car_1" depart="167.89" departLane="random">
        <route edges="-E3 E1"/>
    </vehicle>
    <vehicle id="-E3__2.7" type="car_1" depart="168.59" departLane="random">
        <route edges="-E3 -E0"/>
    </vehicle>
    <vehicle id="-E3__2.8" type="car_1" depart="171.86" departLane="random">
        <route edges="-E3 E2"/>
    </vehicle>
    <vehicle id="-E2__2.8" type="car_1" depart="171.96" departLane="random">
        <route edges="-E2 E1"/>
    </vehicle>
    <vehicle id="-E3__2.9" type="car_1" depart="172.22" departLane="random">
        <route edges="-E3 E2"/>
    </vehicle>
    <vehicle id="E0__2.8" type="car_1" depart="172.57" departLane="random">
        <route edges="E0 E1"/>
    </vehicle>
    <vehicle id="-E3__2.10" type="car_1" depart="178.89" departLane="random">
        <route edges="-E3 E2"/>
    </vehicle>
    <vehicle id="-E1__2.9" type="car_1" depart="179.46" departLane="random">
        <route edges="-E1 -E0"/>
    </vehicle>
    <vehicle id="-E1__3.0" type="car_1" depart="181.36" departLane="random">
        <route edges="-E1 E3"/>
    </vehicle>
    <vehicle id="E0__3.0" type="car_1" depart="181.53" departLane="random">
        <route edges="E0 E1"/>
    </vehicle>
    <vehicle id="-E3__3.0" type="car_1" depart="183.13" departLane="random">
        <route edges="-E3 E2"/>
    </vehicle>
    <vehicle id="-E2__3.0" type="car_1" depart="183.63" departLane="random">
        <route edges="-E2 E3"/>
    </vehicle>
    <vehicle id="E0__3.1" type="car_1" depart="184.58" departLane="random">
        <route edges="E0 E1"/>
    </vehicle>
    <vehicle id="-E3__3.1" type="car_1" depart="185.49" departLane="random">
        <route edges="-E3 E2"/>
    </vehicle>
    <vehicle id="-E3__3.2" type="car_1" depart="187.91" departLane="random">
        <route edges="-E3 -E0"/>
    </vehicle>
    <vehicle id="-E1__3.1" type="car_1" depart="191.32" departLane="random">
        <route edges="-E1 E2"/>
    </vehicle>
    <vehicle id="-E3__3.3" type="car_1" depart="193.07" departLane="random">
        <route edges="-E3 E1"/>
    </vehicle>
    <vehicle id="-E3__3.4" type="car_1" depart="193.55" departLane="random">
        <route edges="-E3 E2"/>
    </vehicle>
    <vehicle id="E0__3.2" type="car_1" depart="193.90" departLane="random">
        <route edges="E0 E1"/>
    </vehicle>
    <vehicle id="E0__3.3" type="car_1" depart="194.52" departLane="random">
        <route edges="E0 E1"/>
    </vehicle>
    <vehicle id="-E1__3.2" type="car_1" depart="194.87" departLane="random">
        <route edges="-E1 E2"/>
    </vehicle>
    <vehicle id="-E1__3.3" type="car_1" depart="194.98" departLane="random">
        <route edges="-E1 E3"/>
    </vehicle>
    <vehicle id="-E1__3.4" type="car_1" depart="197.30" departLane="random">
        <route edges="-E1 -E0"/>
    </vehicle>
    <vehicle id="-E3__3.5" type="car_1" depart="197.31" departLane="random">
        <route edges="-E3 E2"/>
    </vehicle>
    <vehicle id="-E2__3.1" type="car_1" depart="199.18" departLane="random">
        <route edges="-E2 E3"/>
    </vehicle>
    <vehicle id="-E1__3.5" type="car_1" depart="199.23" departLane="random">
        <route edges="-E1 E3"/>
    </vehicle>
    <vehicle id="E0__3.4" type="car_1" depart="201.26" departLane="random">
        <route edges="E0 E1"/>
    </vehicle>
    <vehicle id="-E2__3.2" type="car_1" depart="202.84" departLane="random">
        <route edges="-E2 E3"/>
    </vehicle>
    <vehicle id="-E3__3.6" type="car_1" depart="203.89" departLane="random">
        <route edges="-E3 E2"/>
    </vehicle>
    <vehicle id="-E2__3.3" type="car_1" depart="204.23" departLane="random">
        <route edges="-E2 E1"/>
    </vehicle>
    <vehicle id="E0__3.5" type="car_1" depart="204.56" departLane="random">
        <route edges="E0 E1"/>
    </vehicle>
    <vehicle id="-E3__3.7" type="car_1" depart="208.06" departLane="random">
        <route edges="-E3 E2"/>
    </vehicle>
    <vehicle id="-E2__3.4" type="car_1" depart="208.63" departLane="random">
        <route edges="-E2 E1"/>
    </vehicle>
    <vehicle id="-E3__3.8" type="car_1" depart="209.36" departLane="random">
        <route edges="-E3 E1"/>
    </vehicle>
    <vehicle id="-E1__3.6" type="car_1" depart="210.32" departLane="random">
        <route edges="-E1 E2"/>
    </vehicle>
    <vehicle id="-E2__3.5" type="car_1" depart="210.63" departLane="random">
        <route edges="-E2 E3"/>
    </vehicle>
    <vehicle id="-E1__3.7" type="car_1" depart="212.08" departLane="random">
        <route edges="-E1 E2"/>
    </vehicle>
    <vehicle id="-E1__3.8" type="car_1" depart="214.31" departLane="random">
        <route edges="-E1 E3"/>
    </vehicle>
    <vehicle id="-E2__3.6" type="car_1" depart="217.61" departLane="random">
        <route edges="-E2 E3"/>
    </vehicle>
    <vehicle id="-E3__3.9" type="car_1" depart="219.70" departLane="random">
        <route edges="-E3 E2"/>
    </vehicle>
    <vehicle id="-E1__3.9" type="car_1" depart="220.72" departLane="random">
        <route edges="-E1 -E0"/>
    </vehicle>
    <vehicle id="-E3__3.10" type="car_1" depart="220.88" departLane="random">
        <route edges="-E3 E2"/>
    </vehicle>
    <vehicle id="-E2__3.7" type="car_1" depart="227.82" departLane="random">
        <route edges="-E2 E3"/>
    </vehicle>
    <vehicle id="E0__3.6" type="car_1" depart="227.84" departLane="random">
        <route edges="E0 E1"/>
    </vehicle>
    <vehicle id="-E1__3.10" type="car_1" depart="228.65" departLane="random">
        <route edges="-E1 -E0"/>
    </vehicle>
    <vehicle id="E0__3.7" type="car_1" depart="229.38" departLane="random">
        <route edges="E0 E1"/>
    </vehicle>
    <vehicle id="-E3__3.11" type="car_1" depart="230.26" departLane="random">
        <route edges="-E3 E1"/>
    </vehicle>
    <vehicle id="E0__3.8" type="car_1" depart="231.56" departLane="random">
        <route edges="E0 E1"/>
    </vehicle>
    <vehicle id="-E2__3.8" type="car_1" depart="231.76" departLane="random">
        <route edges="-E2 E1"/>
    </vehicle>
    <vehicle id="-E2__3.9" type="car_1" depart="232.02" departLane="random">
        <route edges="-E2 E3"/>
    </vehicle>
    <vehicle id="-E3__3.12" type="car_1" depart="236.56" departLane="random">
        <route edges="-E3 -E0"/>
    </vehicle>
    <vehicle id="E0__3.9" type="car_1" depart="237.41" departLane="random">
        <route edges="E0 E3"/>
    </vehicle>
    <vehicle id="-E2__4.0" type="car_1" depart="241.13" departLane="random">
        <route edges="-E2 -E0"/>
    </vehicle>
    <vehicle id="-E2__4.1" type="car_1" depart="242.77" departLane="random">
        <route edges="-E2 E1"/>
    </vehicle>
    <vehicle id="-E3__4.0" type="car_1" depart="242.85" departLane="random">
        <route edges="-E3 E1"/>
    </vehicle>
    <vehicle id="-E1__4.0" type="car_1" depart="244.21" departLane="random">
        <route edges="-E1 -E0"/>
    </vehicle>
    <vehicle id="-E3__4.1" type="car_1" depart="246.12" departLane="random">
        <route edges="-E3 E1"/>
    </vehicle>
    <vehicle id="-E3__4.2" type="car_1" depart="247.93" departLane="random">
        <route edges="-E3 E2"/>
    </vehicle>
    <vehicle id="E0__4.0" type="car_1" depart="248.59" departLane="random">
        <route edges="E0 E1"/>
    </vehicle>
    <vehicle id="-E1__4.1" type="car_1" depart="250.80" departLane="random">
        <route edges="-E1 -E0"/>
    </vehicle>
    <vehicle id="-E2__4.2" type="car_1" depart="251.65" departLane="random">
        <route edges="-E2 E1"/>
    </vehicle>
    <vehicle id="-E2__4.3" type="car_1" depart="251.94" departLane="random">
        <route edges="-E2 -E0"/>
    </vehicle>
    <vehicle id="-E2__4.4" type="car_1" depart="254.66" departLane="random">
        <route edges="-E2 E3"/>
    </vehicle>
    <vehicle id="-E1__4.2" type="car_1" depart="254.66" departLane="random">
        <route edges="-E1 E3"/>
    </vehicle>
    <vehicle id="-E1__4.3" type="car_1" depart="255.40" departLane="random">
        <route edges="-E1 E2"/>
    </vehicle>
    <vehicle id="-E2__4.5" type="car_1" depart="258.90" departLane="random">
        <route edges="-E2 E3"/>
    </vehicle>
    <vehicle id="-E3__4.3" type="car_1" depart="260.01" departLane="random">
        <route edges="-E3 E2"/>
    </vehicle>
    <vehicle id="-E2__4.6" type="car_1" depart="260.94" departLane="random">
        <route edges="-E2 -E0"/>
    </vehicle>
    <vehicle id="E0__4.1" type="car_1" depart="261.86" departLane="random">
        <route edges="E0 E1"/>
    </vehicle>
    <vehicle id="-E1__4.4" type="car_1" depart="261.89" departLane="random">
        <route edges="-E1 E3"/>
    </vehicle>
    <vehicle id="-E3__4.4" type="car_1" depart="262.86" departLane="random">
        <route edges="-E3 E2"/>
    </vehicle>
    <vehicle id="-E1__4.5" type="car_1" depart="263.02" departLane="random">
        <route edges="-E1 -E0"/>
    </vehicle>
    <vehicle id="-E1__4.6" type="car_1" depart="263.56" departLane="random">
        <route edges="-E1 E3"/>
    </vehicle>
    <vehicle id="-E1__4.7" type="car_1" depart="264.63" departLane="random">
        <route edges="-E1 E2"/>
    </vehicle>
    <vehicle id="-E3__4.5" type="car_1" depart="264.89" departLane="random">
        <route edges="-E3 E1"/>
    </vehicle>
    <vehicle id="E0__4.2" type="car_1" depart="266.10" departLane="random">
        <route edges="E0 E1"/>
    </vehicle>
    <vehicle id="-E3__4.6" type="car_1" depart="269.04" departLane="random">
        <route edges="-E3 E2"/>
    </vehicle>
    <vehicle id="-E3__4.7" type="car_1" depart="269.22" departLane="random">
        <route edges="-E3 E2"/>
    </vehicle>
    <vehicle id="-E3__4.8" type="car_1" depart="269.33" departLane="random">
        <route edges="-E3 E1"/>
    </vehicle>
    <vehicle id="E0__4.3" type="car_1" depart="270.81" departLane="random">
        <route edges="E0 E2"/>
    </vehicle>
    <vehicle id="-E3__4.9" type="car_1" depart="272.22" departLane="random">
        <route edges="-E3 -E0"/>
    </vehicle>
    <vehicle id="-E2__4.7" type="car_1" depart="272.27" departLane="random">
        <route edges="-E2 E3"/>
    </vehicle>
    <vehicle id="-E2__4.8" type="car_1" depart="273.64" departLane="random">
        <route edges="-E2 E3"/>
    </vehicle>
    <vehicle id="E0__4.4" type="car_1" depart="275.98" departLane="random">
        <route edges="E0 E1"/>
    </vehicle>
    <vehicle id="-E3__4.10" type="car_1" depart="278.09" departLane="random">
        <route edges="-E3 E1"/>
    </vehicle>
    <vehicle id="E0__4.5" type="car_1" depart="280.15" departLane="random">
        <route edges="E0 E1"/>
    </vehicle>
    <vehicle id="-E1__4.8" type="car_1" depart="281.86" departLane="random">
        <route edges="-E1 -E0"/>
    </vehicle>
    <vehicle id="E0__4.6" type="car_1" depart="281.98" departLane="random">
        <route edges="E0 E1"/>
    </vehicle>
    <vehicle id="-E1__4.9" type="car_1" depart="282.80" departLane="random">
        <route edges="-E1 -E0"/>
    </vehicle>
    <vehicle id="-E2__4.9" type="car_1" depart="285.65" departLane="random">
        <route edges="-E2 E3"/>
    </vehicle>
    <vehicle id="E0__4.7" type="car_1" depart="287.23" departLane="random">
        <route edges="E0 E1"/>
    </vehicle>
    <vehicle id="-E3__4.11" type="car_1" depart="287.51" departLane="random">
        <route edges="-E3 E2"/>
    </vehicle>
    <vehicle id="E0__4.8" type="car_1" depart="288.17" departLane="random">
        <route edges="E0 E2"/>
    </vehicle>
    <vehicle id="-E1__4.10" type="car_1" depart="291.08" departLane="random">
        <route edges="-E1 -E0"/>
    </vehicle>
    <vehicle id="-E3__4.12" type="car_1" depart="292.65" departLane="random">
        <route edges="-E3 E1"/>
    </vehicle>
    <vehicle id="E0__4.9" type="car_1" depart="293.92" departLane="random">
        <route edges="E0 E1"/>
    </vehicle>
    <vehicle id="-E1__4.11" type="car_1" depart="294.54" departLane="random">
        <route edges="-E1 -E0"/>
    </vehicle>
    <vehicle id="-E3__4.13" type="car_1" depart="295.18" departLane="random">
        <route edges="-E3 E2"/>
    </vehicle>
    <vehicle id="-E2__4.10" type="car_1" depart="296.22" departLane="random">
        <route edges="-E2 E3"/>
    </vehicle>
    <vehicle id="E0__4.10" type="car_1" depart="297.63" departLane="random">
        <route edges="E0 E3"/>
    </vehicle>
    <vehicle id="-E1__5.0" type="car_1" depart="300.64" departLane="random">
        <route edges="-E1 E3"/>
    </vehicle>
    <vehicle id="-E2__5.0" type="car_2" depart="302.05" departLane="random">
        <route edges="-E2 E3"/>
    </vehicle>
    <vehicle id="E0__5.0" type="car_1" depart="302.61" departLane="random">
        <route edges="E0 E1"/>
    </vehicle>
    <vehicle id="-E1__5.1" type="car_1" depart="304.29" departLane="random">
        <route edges="-E1 -E0"/>
    </vehicle>
    <vehicle id="-E1__5.2" type="car_1" depart="305.01" departLane="random">
        <route edges="-E1 E3"/>
    </vehicle>
    <vehicle id="-E2__5.1" type="car_2" depart="305.37" departLane="random">
        <route edges="-E2 -E0"/>
    </vehicle>
    <vehicle id="-E1__5.3" type="car_1" depart="306.00" departLane="random">
        <route edges="-E1 E3"/>
    </vehicle>
    <vehicle id="-E1__5.4" type="car_1" depart="306.38" departLane="random">
        <route edges="-E1 E3"/>
    </vehicle>
    <vehicle id="-E3__5.0" type="car_1" depart="307.28" departLane="random">
        <route edges="-E3 E2"/>
    </vehicle>
    <vehicle id="-E1__5.5" type="car_1" depart="307.46" departLane="random">
        <route edges="-E1 E3"/>
    </vehicle>
    <vehicle id="-E3__5.1" type="car_1" depart="308.49" departLane="random">
        <route edges="-E3 -E0"/>
    </vehicle>
    <vehicle id="-E3__5.2" type="car_1" depart="309.81" departLane="random">
        <route edges="-E3 E2"/>
    </vehicle>
    <vehicle id="-E1__5.6" type="car_1" depart="312.29" departLane="random">
        <route edges="-E1 -E0"/>
    </vehicle>
    <vehicle id="-E2__5.2" type="car_2" depart="312.80" departLane="random">
        <route edges="-E2 E3"/>
    </vehicle>
    <vehicle id="-E2__5.3" type="car_2" depart="316.84" departLane="random">
        <route edges="-E2 -E0"/>
    </vehicle>
    <vehicle id="E0__5.1" type="car_1" depart="319.26" departLane="random">
        <route edges="E0 E1"/>
    </vehicle>
    <vehicle id="-E1__5.7" type="car_1" depart="320.37" departLane="random">
        <route edges="-E1 -E0"/>
    </vehicle>
    <vehicle id="-E3__5.3" type="car_1" depart="322.02" departLane="random">
        <route edges="-E3 E2"/>
    </vehicle>
    <vehicle id="-E3__5.4" type="car_1" depart="323.51" departLane="random">
        <route edges="-E3 E2"/>
    </vehicle>
    <vehicle id="E0__5.2" type="car_1" depart="325.03" departLane="random">
        <route edges="E0 E1"/>
    </vehicle>
    <vehicle id="-E2__5.4" type="car_2" depart="325.80" departLane="random">
        <route edges="-E2 E3"/>
    </vehicle>
    <vehicle id="E0__5.3" type="car_1" depart="327.02" departLane="random">
        <route edges="E0 E1"/>
    </vehicle>
    <vehicle id="-E1__5.8" type="car_1" depart="329.38" departLane="random">
        <route edges="-E1 E2"/>
    </vehicle>
    <vehicle id="-E2__5.5" type="car_2" depart="330.06" departLane="random">
        <route edges="-E2 E1"/>
    </vehicle>
    <vehicle id="-E2__5.6" type="car_2" depart="333.94" departLane="random">
        <route edges="-E2 -E0"/>
    </vehicle>
    <vehicle id="-E2__5.7" type="car_2" depart="334.36" departLane="random">
        <route edges="-E2 E3"/>
    </vehicle>
    <vehicle id="E0__5.4" type="car_1" depart="335.66" departLane="random">
        <route edges="E0 E1"/>
    </vehicle>
    <vehicle id="-E3__5.5" type="car_1" depart="337.69" departLane="random">
        <route edges="-E3 E1"/>
    </vehicle>
    <vehicle id="-E3__5.6" type="car_1" depart="338.16" departLane="random">
        <route edges="-E3 E2"/>
    </vehicle>
    <vehicle id="-E2__5.8" type="car_2" depart="338.58" departLane="random">
        <route edges="-E2 E3"/>
    </vehicle>
    <vehicle id="-E3__5.7" type="car_1" depart="339.47" departLane="random">
        <route edges="-E3 -E0"/>
    </vehicle>
    <vehicle id="-E1__5.9" type="car_1" depart="339.54" departLane="random">
        <route edges="-E1 -E0"/>
    </vehicle>
    <vehicle id="-E2__5.9" type="car_2" depart="340.33" departLane="random">
        <route edges="-E2 E1"/>
    </vehicle>
    <vehicle id="E0__5.5" type="car_1" depart="340.93" departLane="random">
        <route edges="E0 E1"/>
    </vehicle>
    <vehicle id="-E3__5.8" type="car_1" depart="341.27" departLane="random">
        <route edges="-E3 E2"/>
    </vehicle>
    <vehicle id="E0__5.6" type="car_1" depart="342.30" departLane="random">
        <route edges="E0 E1"/>
    </vehicle>
    <vehicle id="-E3__5.9" type="car_1" depart="343.40" departLane="random">
        <route edges="-E3 E1"/>
    </vehicle>
    <vehicle id="-E1__5.10" type="car_1" depart="343.72" departLane="random">
        <route edges="-E1 E3"/>
    </vehicle>
    <vehicle id="-E3__5.10" type="car_1" depart="344.28" departLane="random">
        <route edges="-E3 E2"/>
    </vehicle>
    <vehicle id="E0__5.7" type="car_1" depart="345.18" departLane="random">
        <route edges="E0 E3"/>
    </vehicle>