<additional xmlns:xsi="http://www.w3.org/2001/XMLSchema-instance" xsi:noNamespaceSchemaLocation="http://sumo.dlr.de/xsd/additional_file.xsd">
    <e1Detector file="e1_internal.output.xml" freq="60" friendlyPos="x" id="e1det_internal--cluster_274083968_cluster_1200364014_1200364088--201963537#1--201963537#1_1--104010475#0_1--s" lane=":cluster_274083968_cluster_1200364014_1200364088_0_0" pos="3"/>
    <e1Detector file="e1_internal.output.xml" freq="60" friendlyPos="x" id="e1det_internal--cluster_274083968_cluster_1200364014_1200364088--201963537#1--201963537#1_2--104010475#0_2--s" lane=":cluster_274083968_cluster_1200364014_1200364088_0_1" pos="3"/>
    <e1Detector file="e1_internal.output.xml" freq="60" friendlyPos="x" id="e1det_internal--cluster_274083968_cluster_1200364014_1200364088--201963537#1--201963537#1_3---164051413_1--l" lane=":cluster_274083968_cluster_1200364014_1200364088_2_0" pos="3"/>
    <e1Detector file="e1_internal.output.xml" freq="60" friendlyPos="x" id="e1det_internal--cluster_274083968_cluster_1200364014_1200364088--164051413--164051413_1--124812857#0_1--r" lane=":cluster_274083968_cluster_1200364014_1200364088_3_0" pos="3"/>
    <e1Detector file="e1_internal.output.xml" freq="60" friendlyPos="x" id="e1det_internal--cluster_274083968_cluster_1200364014_1200364088--164051413--164051413_2--104010475#0_2--l" lane=":cluster_274083968_cluster_1200364014_1200364088_4_0" pos="3"/>
    <e1Detector file="e1_internal.output.xml" freq="60" friendlyPos="x" id="e1det_internal--cluster_274083968_cluster_1200364014_1200364088--104010354--104010354_1---164051413_1--r" lane=":cluster_274083968_cluster_1200364014_1200364088_5_0" pos="3"/>
    <e1Detector file="e1_internal.output.xml" freq="60" friendlyPos="x" id="e1det_internal--cluster_274083968_cluster_1200364014_1200364088--104010354--104010354_1--124812857#0_2--s" lane=":cluster_274083968_cluster_1200364014_1200364088_6_0" pos="3"/>
    <e1Detector file="e1_internal.output.xml" freq="60" friendlyPos="x" id="e1det_internal--cluster_274083968_cluster_1200364014_1200364088--104010354--104010354_2--124812857#0_3--s" lane=":cluster_274083968_cluster_1200364014_1200364088_6_1" pos="3"/>
</additional>
