<?xml version="1.0" encoding="UTF-8"?>

<!-- generated on 2024-03-24 18:51:53 by Eclipse SUMO jtrrouter Version 1.19.0
<configuration xmlns:xsi="http://www.w3.org/2001/XMLSchema-instance" xsi:noNamespaceSchemaLocation="http://sumo.dlr.de/xsd/jtrrouterConfiguration.xsd">

    <input>
        <net-file value="/home/wmn/TransSimHub/sumo_datasets/train_three_3/./env/3phases.net.xml"/>
        <route-files value="/home/wmn/TransSimHub/sumo_datasets/train_three_3/./testflow.trip.xml"/>
        <turn-ratio-files value="/home/wmn/TransSimHub/sumo_datasets/train_three_3/./testflow.turndefs.xml"/>
    </input>

    <output>
        <output-file value="/home/wmn/TransSimHub/sumo_datasets/train_three_3/./routes/0.rou.xml"/>
    </output>

    <processing>
        <randomize-flows value="True"/>
        <accept-all-destinations value="True"/>
    </processing>

    <defaults>
        <departlane value="random"/>
    </defaults>

    <report>
        <no-warnings value="true"/>
    </report>

    <random_number>
        <seed value="777"/>
    </random_number>

</configuration>
-->

<routes xmlns:xsi="http://www.w3.org/2001/XMLSchema-instance" xsi:noNamespaceSchemaLocation="http://sumo.dlr.de/xsd/routes_file.xsd">
    <vType id="background" length="7.00" maxSpeed="15.00" color="155,89,182" tau="1.0"/>
    <vehicle id="-E3__0__background.0" type="background" depart="3.58" departLane="random">
        <route edges="-E3 -E0"/>
    </vehicle>
    <vehicle id="-E3__0__background.1" type="background" depart="6.54" departLane="random">
        <route edges="-E3 -E0"/>
    </vehicle>
    <vehicle id="-E3__0__background.2" type="background" depart="6.80" departLane="random">
        <route edges="-E3 E1"/>
    </vehicle>
    <vehicle id="-E3__0__background.3" type="background" depart="10.88" departLane="random">
        <route edges="-E3 -E0"/>
    </vehicle>
    <vehicle id="-E3__0__background.4" type="background" depart="11.03" departLane="random">
        <route edges="-E3 -E0"/>
    </vehicle>
    <vehicle id="-E3__0__background.5" type="background" depart="12.32" departLane="random">
        <route edges="-E3 E1"/>
    </vehicle>
    <vehicle id="E0__0__background.0" type="background" depart="15.93" departLane="random">
        <route edges="E0 E1"/>
    </vehicle>
    <vehicle id="-E3__0__background.6" type="background" depart="17.37" departLane="random">
        <route edges="-E3 -E0"/>
    </vehicle>
    <vehicle id="-E3__0__background.7" type="background" depart="20.32" departLane="random">
        <route edges="-E3 -E0"/>
    </vehicle>
    <vehicle id="-E3__0__background.8" type="background" depart="25.90" departLane="random">
        <route edges="-E3 -E0"/>
    </vehicle>
    <vehicle id="-E1__0__background.0" type="background" depart="26.70" departLane="random">
        <route edges="-E1 -E0"/>
    </vehicle>
    <vehicle id="-E3__0__background.9" type="background" depart="28.79" departLane="random">
        <route edges="-E3 E1"/>
    </vehicle>
    <vehicle id="-E1__0__background.1" type="background" depart="36.79" departLane="random">
        <route edges="-E1 -E0"/>
    </vehicle>
    <vehicle id="-E1__0__background.2" type="background" depart="40.54" departLane="random">
        <route edges="-E1 -E0"/>
    </vehicle>
    <vehicle id="-E3__0__background.10" type="background" depart="40.85" departLane="random">
        <route edges="-E3 -E0"/>
    </vehicle>
    <vehicle id="-E3__0__background.11" type="background" depart="44.46" departLane="random">
        <route edges="-E3 E1"/>
    </vehicle>
    <vehicle id="E0__0__background.1" type="background" depart="47.92" departLane="random">
        <route edges="E0 E1"/>
    </vehicle>
    <vehicle id="E0__0__background.2" type="background" depart="52.13" departLane="random">
        <route edges="E0 E1"/>
    </vehicle>
    <vType id="ego" length="7.00" maxSpeed="17.00" color="26,188,156" tau="1.0"/>
    <vehicle id="-E3__0__ego.0" type="ego" depart="54.94" departLane="random">
        <route edges="-E3 E1"/>
    </vehicle>
    <vehicle id="-E3__1__background.0" type="background" depart="60.84" departLane="random">
        <route edges="-E3 E1"/>
    </vehicle>
    <vehicle id="-E3__1__background.1" type="background" depart="64.16" departLane="random">
        <route edges="-E3 -E0"/>
    </vehicle>
    <vehicle id="-E3__1__background.2" type="background" depart="65.68" departLane="random">
        <route edges="-E3 -E0"/>
    </vehicle>
    <vehicle id="-E1__1__background.0" type="background" depart="67.71" departLane="random">
        <route edges="-E1 -E0"/>
    </vehicle>
    <vehicle id="-E3__1__background.3" type="background" depart="67.95" departLane="random">
        <route edges="-E3 -E0"/>
    </vehicle>
    <vehicle id="-E1__1__background.1" type="background" depart="70.82" departLane="random">
        <route edges="-E1 -E0"/>
    </vehicle>
    <vehicle id="-E3__1__background.4" type="background" depart="75.68" departLane="random">
        <route edges="-E3 E1"/>
    </vehicle>
    <vehicle id="-E3__1__background.5" type="background" depart="76.75" departLane="random">
        <route edges="-E3 -E0"/>
    </vehicle>
    <vehicle id="E0__1__background.0" type="background" depart="79.28" departLane="random">
        <route edges="E0 E1"/>
    </vehicle>
    <vehicle id="-E3__1__background.6" type="background" depart="83.35" departLane="random">
        <route edges="-E3 -E0"/>
    </vehicle>
    <vehicle id="E0__1__background.1" type="background" depart="86.95" departLane="random">
        <route edges="E0 E1"/>
    </vehicle>
    <vehicle id="-E3__1__ego.0" type="ego" depart="95.91" departLane="random">
        <route edges="-E3 -E0"/>
    </vehicle>
    <vehicle id="E0__1__background.2" type="background" depart="101.30" departLane="random">
        <route edges="E0 E1"/>
    </vehicle>
    <vehicle id="-E3__1__background.7" type="background" depart="106.02" departLane="random">
        <route edges="-E3 -E0"/>
    </vehicle>
    <vehicle id="-E3__1__background.8" type="background" depart="106.02" departLane="random">
        <route edges="-E3 -E0"/>
    </vehicle>
    <vehicle id="-E1__1__background.2" type="background" depart="108.23" departLane="random">
        <route edges="-E1 -E0"/>
    </vehicle>
    <vehicle id="-E3__1__background.9" type="background" depart="111.52" departLane="random">
        <route edges="-E3 E1"/>
    </vehicle>
    <vehicle id="-E3__1__background.10" type="background" depart="113.45" departLane="random">
        <route edges="-E3 E1"/>
    </vehicle>
    <vehicle id="-E3__1__background.11" type="background" depart="116.15" departLane="random">
        <route edges="-E3 -E0"/>
    </vehicle>
    <vehicle id="-E3__2__background.0" type="background" depart="120.03" departLane="random">
        <route edges="-E3 -E0"/>
    </vehicle>
    <vehicle id="-E3__2__background.1" type="background" depart="124.54" departLane="random">
        <route edges="-E3 -E0"/>
    </vehicle>
    <vehicle id="E0__2__background.0" type="background" depart="125.99" departLane="random">
        <route edges="E0 E1"/>
    </vehicle>
    <vehicle id="-E3__2__background.2" type="background" depart="129.31" departLane="random">
        <route edges="-E3 -E0"/>
    </vehicle>
    <vehicle id="-E3__2__background.3" type="background" depart="135.08" departLane="random">
        <route edges="-E3 -E0"/>
    </vehicle>
    <vehicle id="-E1__2__background.0" type="background" depart="145.22" departLane="random">
        <route edges="-E1 -E0"/>
    </vehicle>
    <vehicle id="-E3__2__background.4" type="background" depart="146.23" departLane="random">
        <route edges="-E3 -E0"/>
    </vehicle>
    <vehicle id="-E3__2__background.5" type="background" depart="146.40" departLane="random">
        <route edges="-E3 -E0"/>
    </vehicle>
    <vehicle id="E0__2__background.1" type="background" depart="148.29" departLane="random">
        <route edges="E0 E1"/>
    </vehicle>
    <vehicle id="-E3__2__background.6" type="background" depart="150.89" departLane="random">
        <route edges="-E3 -E0"/>
    </vehicle>
    <vehicle id="-E3__2__ego.0" type="ego" depart="151.08" departLane="random">
        <route edges="-E3 -E0"/>
    </vehicle>
    <vehicle id="E0__2__background.2" type="background" depart="153.66" departLane="random">
        <route edges="E0 E1"/>
    </vehicle>
    <vehicle id="-E3__2__background.7" type="background" depart="159.15" departLane="random">
        <route edges="-E3 E1"/>
    </vehicle>
    <vehicle id="-E1__2__background.1" type="background" depart="163.19" departLane="random">
        <route edges="-E1 -E0"/>
    </vehicle>
    <vehicle id="-E1__2__background.2" type="background" depart="168.14" departLane="random">
        <route edges="-E1 -E0"/>
    </vehicle>
    <vehicle id="-E3__2__background.8" type="background" depart="169.14" departLane="random">
        <route edges="-E3 E1"/>
    </vehicle>
    <vehicle id="-E3__2__background.9" type="background" depart="174.52" departLane="random">
        <route edges="-E3 E1"/>
    </vehicle>
    <vehicle id="-E3__2__background.10" type="background" depart="177.89" departLane="random">
        <route edges="-E3 E1"/>
    </vehicle>
    <vehicle id="-E3__2__background.11" type="background" depart="179.78" departLane="random">
        <route edges="-E3 -E0"/>
    </vehicle>
    <vehicle id="E0__3__background.0" type="background" depart="181.54" departLane="random">
        <route edges="E0 E1"/>
    </vehicle>
    <vehicle id="-E1__3__background.0" type="background" depart="181.72" departLane="random">
        <route edges="-E1 -E0"/>
    </vehicle>
    <vehicle id="E0__3__background.1" type="background" depart="183.43" departLane="random">
        <route edges="E0 E1"/>
    </vehicle>
    <vehicle id="-E1__3__background.1" type="background" depart="183.47" departLane="random">
        <route edges="-E1 -E0"/>
    </vehicle>
    <vehicle id="-E1__3__background.2" type="background" depart="190.17" departLane="random">
        <route edges="-E1 -E0"/>
    </vehicle>
    <vehicle id="E0__3__ego.0" type="ego" depart="191.26" departLane="random">
        <route edges="E0 E1"/>
    </vehicle>
    <vehicle id="-E1__3__background.3" type="background" depart="192.29" departLane="random">
        <route edges="-E1 -E0"/>
    </vehicle>
    <vehicle id="-E1__3__ego.0" type="ego" depart="192.41" departLane="random">
        <route edges="-E1 -E0"/>
    </vehicle>
    <vehicle id="E0__3__background.2" type="background" depart="193.67" departLane="random">
        <route edges="E0 E1"/>
    </vehicle>
    <vehicle id="-E1__3__background.4" type="background" depart="194.01" departLane="random">
        <route edges="-E1 -E0"/>
    </vehicle>
    <vehicle id="E0__3__background.3" type="background" depart="195.59" departLane="random">
        <route edges="E0 E1"/>
    </vehicle>
    <vehicle id="E0__3__background.4" type="background" depart="196.46" departLane="random">
        <route edges="E0 E1"/>
    </vehicle>
    <vehicle id="-E1__3__background.5" type="background" depart="196.73" departLane="random">
        <route edges="-E1 -E0"/>
    </vehicle>
    <vehicle id="E0__3__background.5" type="background" depart="198.84" departLane="random">
        <route edges="E0 E1"/>
    </vehicle>
    <vehicle id="-E1__3__background.6" type="background" depart="200.50" departLane="random">
        <route edges="-E1 -E0"/>
    </vehicle>
    <vehicle id="-E3__3__background.0" type="background" depart="203.16" departLane="random">
        <route edges="-E3 E1"/>
    </vehicle>
    <vehicle id="-E1__3__background.7" type="background" depart="207.35" departLane="random">
        <route edges="-E1 E3"/>
    </vehicle>
    <vehicle id="E0__3__background.6" type="background" depart="209.83" departLane="random">
        <route edges="E0 E1"/>
    </vehicle>
    <vehicle id="-E3__3__background.1" type="background" depart="215.70" departLane="random">
        <route edges="-E3 -E0"/>
    </vehicle>
    <vehicle id="-E1__3__background.8" type="background" depart="217.85" departLane="random">
        <route edges="-E1 -E0"/>
    </vehicle>
    <vehicle id="E0__3__background.7" type="background" depart="222.87" departLane="random">
        <route edges="E0 E1"/>
    </vehicle>
    <vehicle id="E0__3__background.8" type="background" depart="223.28" departLane="random">
        <route edges="E0 E1"/>
    </vehicle>
    <vehicle id="-E1__3__background.9" type="background" depart="224.98" departLane="random">
        <route edges="-E1 -E0"/>
    </vehicle>
    <vehicle id="E0__3__background.9" type="background" depart="225.90" departLane="random">
        <route edges="E0 E1"/>
    </vehicle>
    <vehicle id="-E1__3__background.10" type="background" depart="227.92" departLane="random">
        <route edges="-E1 -E0"/>
    </vehicle>
    <vehicle id="-E1__3__background.11" type="background" depart="230.49" departLane="random">
        <route edges="-E1 -E0"/>
    </vehicle>
    <vehicle id="E0__3__background.10" type="background" depart="231.42" departLane="random">
        <route edges="E0 E1"/>
    </vehicle>
    <vehicle id="-E3__3__background.2" type="background" depart="232.24" departLane="random">
        <route edges="-E3 E1"/>
    </vehicle>
    <vehicle id="E0__3__background.11" type="background" depart="233.47" departLane="random">
        <route edges="E0 E1"/>
    </vehicle>
    <vehicle id="E0__4__background.0" type="background" depart="241.00" departLane="random">
        <route edges="E0 E1"/>
    </vehicle>
    <vehicle id="-E1__4__background.0" type="background" depart="243.60" departLane="random">
        <route edges="-E1 -E0"/>
    </vehicle>
    <vehicle id="-E1__4__background.1" type="background" depart="248.79" departLane="random">
        <route edges="-E1 -E0"/>
    </vehicle>
    <vehicle id="E0__4__background.1" type="background" depart="248.82" departLane="random">
        <route edges="E0 E1"/>
    </vehicle>
    <vehicle id="-E1__4__background.2" type="background" depart="249.26" departLane="random">
        <route edges="-E1 -E0"/>
    </vehicle>
    <vehicle id="E0__4__background.2" type="background" depart="253.75" departLane="random">
        <route edges="E0 E1"/>
    </vehicle>
    <vehicle id="-E3__4__background.0" type="background" depart="257.41" departLane="random">
        <route edges="-E3 E1"/>
    </vehicle>
    <vehicle id="-E1__4__ego.0" type="ego" depart="258.82" departLane="random">
        <route edges="-E1 -E0"/>
    </vehicle>
    <vehicle id="E0__4__background.3" type="background" depart="261.15" departLane="random">
        <route edges="E0 E1"/>
    </vehicle>
    <vehicle id="E0__4__background.4" type="background" depart="261.25" departLane="random">
        <route edges="E0 E1"/>
    </vehicle>
    <vehicle id="-E3__4__background.1" type="background" depart="262.40" departLane="random">
        <route edges="-E3 -E0"/>
    </vehicle>
    <vehicle id="E0__4__background.5" type="background" depart="265.18" departLane="random">
        <route edges="E0 E3"/>
    </vehicle>
    <vehicle id="E0__4__ego.0" type="ego" depart="265.86" departLane="random">
        <route edges="E0 E1"/>
    </vehicle>
    <vehicle id="-E1__4__background.3" type="background" depart="274.31" departLane="random">
        <route edges="-E1 -E0"/>
    </vehicle>
    <vehicle id="-E1__4__background.4" type="background" depart="274.60" departLane="random">
        <route edges="-E1 -E0"/>
    </vehicle>
    <vehicle id="-E1__4__background.5" type="background" depart="276.68" departLane="random">
        <route edges="-E1 E3"/>
    </vehicle>
    <vehicle id="-E1__4__background.6" type="background" depart="277.11" departLane="random">
        <route edges="-E1 -E0"/>
    </vehicle>
    <vehicle id="E0__4__background.6" type="background" depart="280.90" departLane="random">
        <route edges="E0 E1"/>
    </vehicle>
    <vehicle id="-E1__4__background.7" type="background" depart="284.11" departLane="random">
        <route edges="-E1 -E0"/>
    </vehicle>
    <vehicle id="E0__4__background.7" type="background" depart="284.49" departLane="random">
        <route edges="E0 E1"/>
    </vehicle>
    <vehicle id="-E1__4__background.8" type="background" depart="285.63" departLane="random">
        <route edges="-E1 -E0"/>
    </vehicle>
    <vehicle id="E0__4__background.8" type="background" depart="285.73" departLane="random">
        <route edges="E0 E3"/>
    </vehicle>
    <vehicle id="E0__4__background.9" type="background" depart="288.93" departLane="random">
        <route edges="E0 E1"/>
    </vehicle>
    <vehicle id="-E1__4__background.9" type="background" depart="291.29" departLane="random">
        <route edges="-E1 -E0"/>
    </vehicle>
    <vehicle id="E0__4__background.10" type="background" depart="291.75" departLane="random">
        <route edges="E0 E1"/>
    </vehicle>
    <vehicle id="-E1__4__background.10" type="background" depart="294.15" departLane="random">
        <route edges="-E1 -E0"/>
    </vehicle>
    <vehicle id="-E1__4__background.11" type="background" depart="295.70" departLane="random">
        <route edges="-E1 -E0"/>
    </vehicle>
    <vehicle id="-E3__4__background.2" type="background" depart="295.99" departLane="random">
        <route edges="-E3 -E0"/>
    </vehicle>
    <vehicle id="E0__4__background.11" type="background" depart="297.52" departLane="random">
        <route edges="E0 E1"/>
    </vehicle>
    <vehicle id="-E3__5__background.0" type="background" depart="301.21" departLane="random">
        <route edges="-E3 -E0"/>
    </vehicle>
    <vehicle id="-E3__5__background.1" type="background" depart="307.55" departLane="random">
        <route edges="-E3 E1"/>
    </vehicle>
    <vehicle id="-E3__5__background.2" type="background" depart="323.58" departLane="random">
        <route edges="-E3 E1"/>
    </vehicle>
    <vehicle id="E0__5__background.0" type="background" depart="324.84" departLane="random">
        <route edges="E0 E1"/>
    </vehicle>
    <vehicle id="-E3__5__background.3" type="background" depart="325.07" departLane="random">
        <route edges="-E3 E1"/>
    </vehicle>
    <vehicle id="-E3__5__ego.0" type="ego" depart="326.74" departLane="random">
        <route edges="-E3 E1"/>
    </vehicle>
    <vehicle id="E0__5__background.1" type="background" depart="327.54" departLane="random">
        <route edges="E0 E1"/>
    </vehicle>
    <vehicle id="-E1__5__background.0" type="background" depart="329.73" departLane="random">
        <route edges="-E1 -E0"/>
    </vehicle>
    <vehicle id="-E3__5__background.4" type="background" depart="331.72" departLane="random">
        <route edges="-E3 -E0"/>
    </vehicle>
    <vehicle id="-E3__5__background.5" type="background" depart="333.39" departLane="random">
        <route edges="-E3 -E0"/>
    </vehicle>
    <vehicle id="-E1__5__background.1" type="background" depart="337.26" departLane="random">
        <route edges="-E1 -E0"/>
    </vehicle>
    <vehicle id="-E1__5__background.2" type="background" depart="337.41" departLane="random">
        <route edges="-E1 -E0"/>
    </vehicle>
    <vehicle id="-E3__5__background.6" type="background" depart="337.44" departLane="random">
        <route edges="-E3 -E0"/>
    </vehicle>
    <vehicle id="-E3__5__background.7" type="background" depart="339.01" departLane="random">
        <route edges="-E3 -E0"/>
    </vehicle>
    <vehicle id="-E3__5__background.8" type="background" depart="344.76" departLane="random">
        <route edges="-E3 E1"/>
    </vehicle>
    <vehicle id="E0__5__background.2" type="background" depart="352.22" departLane="random">
        <route edges="E0 E1"/>
    </vehicle>
    <vehicle id="-E3__5__background.9" type="background" depart="356.58" departLane="random">
        <route edges="-E3 -E0"/>
    </vehicle>
    <vehicle id="-E3__5__background.10" type="background" depart="357.53" departLane="random">
        <route edges="-E3 -E0"/>
    </vehicle>
    <vehicle id="-E3__5__background.11" type="background" depart="357.56" departLane="random">
        <route edges="-E3 -E0"/>
    </vehicle>
    <vehicle id="-E3__6__background.0" type="background" depart="363.47" departLane="random">
        <route edges="-E3 -E0"/>
    </vehicle>
    <vehicle id="-E1__6__background.0" type="background" depart="365.34" departLane="random">
        <route edges="-E1 -E0"/>
    </vehicle>
    <vehicle id="-E1__6__background.1" type="background" depart="370.58" departLane="random">
        <route edges="-E1 -E0"/>
    </vehicle>
    <vehicle id="-E1__6__background.2" type="background" depart="370.81" departLane="random">
        <route edges="-E1 -E0"/>
    </vehicle>
    <vehicle id="-E1__6__background.3" type="background" depart="373.62" departLane="random">
        <route edges="-E1 -E0"/>
    </vehicle>
    <vehicle id="E0__6__background.0" type="background" depart="375.95" departLane="random">
        <route edges="E0 E3"/>
    </vehicle>
    <vehicle id="E0__6__ego.0" type="ego" depart="378.20" departLane="random">
        <route edges="E0 E1"/>
    </vehicle>
    <vehicle id="E0__6__background.1" type="background" depart="380.24" departLane="random">
        <route edges="E0 E1"/>
    </vehicle>
    <vehicle id="E0__6__background.2" type="background" depart="382.06" departLane="random">
        <route edges="E0 E1"/>
    </vehicle>
    <vehicle id="-E1__6__background.4" type="background" depart="387.01" departLane="random">
        <route edges="-E1 -E0"/>
    </vehicle>
    <vehicle id="E0__6__background.3" type="background" depart="388.08" departLane="random">
        <route edges="E0 E1"/>
    </vehicle>
    <vehicle id="-E1__6__background.5" type="background" depart="388.11" departLane="random">
        <route edges="-E1 -E0"/>
    </vehicle>
    <vehicle id="E0__6__background.4" type="background" depart="390.61" departLane="random">
        <route edges="E0 E1"/>
    </vehicle>
    <vehicle id="-E1__6__background.6" type="background" depart="390.73" departLane="random">
        <route edges="-E1 -E0"/>
    </vehicle>
    <vehicle id="-E1__6__background.7" type="background" depart="391.28" departLane="random">
        <route edges="-E1 -E0"/>
    </vehicle>
    <vehicle id="-E1__6__background.8" type="background" depart="391.50" departLane="random">
        <route edges="-E1 -E0"/>
    </vehicle>
    <vehicle id="-E1__6__ego.0" type="ego" depart="393.57" departLane="random">
        <route edges="-E1 -E0"/>
    </vehicle>
    <vehicle id="E0__6__background.5" type="background" depart="397.22" departLane="random">
        <route edges="E0 E1"/>
    </vehicle>
    <vehicle id="E0__6__background.6" type="background" depart="399.97" departLane="random">
        <route edges="E0 E1"/>
    </vehicle>
    <vehicle id="E0__6__background.7" type="background" depart="401.40" departLane="random">
        <route edges="E0 E1"/>
    </vehicle>
    <vehicle id="-E1__6__background.9" type="background" depart="401.64" departLane="random">
        <route edges="-E1 -E0"/>
    </vehicle>
    <vehicle id="E0__6__background.8" type="background" depart="402.09" departLane="random">
        <route edges="E0 E1"/>
    </vehicle>
    <vehicle id="-E3__6__background.1" type="background" depart="404.33" departLane="random">
        <route edges="-E3 -E0"/>
    </vehicle>
    <vehicle id="-E1__6__background.10" type="background" depart="405.20" departLane="random">
        <route edges="-E1 -E0"/>
    </vehicle>
    <vehicle id="-E3__6__background.2" type="background" depart="405.79" departLane="random">
        <route edges="-E3 -E0"/>
    </vehicle>
    <vehicle id="E0__6__background.9" type="background" depart="406.09" departLane="random">
        <route edges="E0 E1"/>
    </vehicle>
    <vehicle id="E0__6__background.10" type="background" depart="410.50" departLane="random">
        <route edges="E0 E1"/>
    </vehicle>
    <vehicle id="-E1__6__background.11" type="background" depart="413.97" departLane="random">
        <route edges="-E1 -E0"/>
    </vehicle>
    <vehicle id="E0__6__background.11" type="background" depart="419.25" departLane="random">
        <route edges="E0 E1"/>
    </vehicle>
    <vehicle id="-E3__7__background.0" type="background" depart="421.02" departLane="random">
        <route edges="-E3 -E0"/>
    </vehicle>
    <vehicle id="E0__7__background.0" type="background" depart="421.71" departLane="random">
        <route edges="E0 E3"/>
    </vehicle>
    <vehicle id="-E1__7__background.0" type="background" depart="424.61" departLane="random">
        <route edges="-E1 -E0"/>
    </vehicle>
    <vehicle id="-E3__7__background.1" type="background" depart="425.98" departLane="random">
        <route edges="-E3 -E0"/>
    </vehicle>
    <vehicle id="-E1__7__background.1" type="background" depart="426.73" departLane="random">
        <route edges="-E1 -E0"/>
    </vehicle>
    <vehicle id="E0__7__background.1" type="background" depart="427.76" departLane="random">
        <route edges="E0 E1"/>
    </vehicle>
    <vehicle id="E0__7__background.2" type="background" depart="428.42" departLane="random">
        <route edges="E0 E1"/>
    </vehicle>
    <vehicle id="E0__7__background.3" type="background" depart="429.40" departLane="random">
        <route edges="E0 E1"/>
    </vehicle>
    <vehicle id="-E1__7__background.2" type="background" depart="431.59" departLane="random">
        <route edges="-E1 -E0"/>
    </vehicle>
    <vehicle id="-E1__7__background.3" type="background" depart="434.92" departLane="random">
        <route edges="-E1 -E0"/>
    </vehicle>
    <vehicle id="-E1__7__background.4" type="background" depart="435.04" departLane="random">
        <route edges="-E1 -E0"/>
    </vehicle>
    <vehicle id="E0__7__background.4" type="background" depart="442.48" departLane="random">
        <route edges="E0 E1"/>
    </vehicle>
    <vehicle id="E0__7__background.5" type="background" depart="443.69" departLane="random">
        <route edges="E0 E1"/>
    </vehicle>
    <vehicle id="-E1__7__background.5" type="background" depart="446.05" departLane="random">
        <route edges="-E1 -E0"/>
    </vehicle>
    <vehicle id="E0__7__background.6" type="background" depart="446.20" departLane="random">
        <route edges="E0 E1"/>
    </vehicle>
    <vehicle id="E0__7__background.7" type="background" depart="446.47" departLane="random">
        <route edges="E0 E1"/>
    </vehicle>
    <vehicle id="E0__7__ego.0" type="ego" depart="453.56" departLane="random">
        <route edges="E0 E1"/>
    </vehicle>
    <vehicle id="-E1__7__background.6" type="background" depart="454.15" departLane="random">
        <route edges="-E1 -E0"/>
    </vehicle>
    <vehicle id="-E1__7__background.7" type="background" depart="456.78" departLane="random">
        <route edges="-E1 -E0"/>
    </vehicle>
    <vehicle id="-E1__7__background.8" type="background" depart="460.14" departLane="random">
        <route edges="-E1 -E0"/>
    </vehicle>
    <vehicle id="-E3__7__background.2" type="background" depart="461.20" departLane="random">
        <route edges="-E3 -E0"/>
    </vehicle>
    <vehicle id="-E1__7__background.9" type="background" depart="463.04" departLane="random">
        <route edges="-E1 -E0"/>
    </vehicle>
    <vehicle id="-E1__7__ego.0" type="ego" depart="466.71" departLane="random">
        <route edges="-E1 -E0"/>
    </vehicle>
    <vehicle id="-E1__7__background.10" type="background" depart="469.36" departLane="random">
        <route edges="-E1 -E0"/>
    </vehicle>
    <vehicle id="E0__7__background.8" type="background" depart="472.05" departLane="random">
        <route edges="E0 E1"/>
    </vehicle>
    <vehicle id="-E1__7__background.11" type="background" depart="478.70" departLane="random">
        <route edges="-E1 -E0"/>
    </vehicle>
    <vehicle id="E0__7__background.9" type="background" depart="479.77" departLane="random">
        <route edges="E0 E1"/>
    </vehicle>
    <vehicle id="E0__7__background.10" type="background" depart="479.81" departLane="random">
        <route edges="E0 E3"/>
    </vehicle>
    <vehicle id="E0__7__background.11" type="background" depart="479.99" departLane="random">
        <route edges="E0 E1"/>
    </vehicle>
    <vehicle id="-E3__8__background.0" type="background" depart="480.93" departLane="random">
        <route edges="-E3 -E0"/>
    </vehicle>
    <vehicle id="-E3__8__background.1" type="background" depart="497.02" departLane="random">
        <route edges="-E3 -E0"/>
    </vehicle>
    <vehicle id="E0__8__background.0" type="background" depart="502.54" departLane="random">
        <route edges="E0 E1"/>
    </vehicle>
    <vehicle id="-E3__8__background.2" type="background" depart="502.94" departLane="random">
        <route edges="-E3 -E0"/>
    </vehicle>
    <vehicle id="-E3__8__background.3" type="background" depart="502.96" departLane="random">
        <route edges="-E3 -E0"/>
    </vehicle>
    <vehicle id="-E3__8__background.4" type="background" depart="503.79" departLane="random">
        <route edges="-E3 -E0"/>
    </vehicle>
    <vehicle id="-E1__8__background.0" type="background" depart="503.95" departLane="random">
        <route edges="-E1 -E0"/>
    </vehicle>
    <vehicle id="-E3__8__background.5" type="background" depart="509.77" departLane="random">
        <route edges="-E3 -E0"/>
    </vehicle>
    <vehicle id="-E3__8__background.6" type="background" depart="510.31" departLane="random">
        <route edges="-E3 E1"/>
    </vehicle>
    <vehicle id="E0__8__background.1" type="background" depart="514.33" departLane="random">
        <route edges="E0 E1"/>
    </vehicle>
    <vehicle id="-E3__8__background.7" type="background" depart="515.51" departLane="random">
        <route edges="-E3 -E0"/>
    </vehicle>
    <vehicle id="-E1__8__background.1" type="background" depart="517.00" departLane="random">
        <route edges="-E1 -E0"/>
    </vehicle>