<?xml version="1.0" encoding="UTF-8"?>

<!-- generated on 2024-03-24 18:51:53 by Eclipse SUMO jtrrouter Version 1.19.0
<configuration xmlns:xsi="http://www.w3.org/2001/XMLSchema-instance" xsi:noNamespaceSchemaLocation="http://sumo.dlr.de/xsd/jtrrouterConfiguration.xsd">

    <input>
        <net-file value="/home/wmn/TransSimHub/sumo_datasets/train_three_3/./env/3phases.net.xml"/>
        <route-files value="/home/wmn/TransSimHub/sumo_datasets/train_three_3/./testflow.trip.xml"/>
        <turn-ratio-files value="/home/wmn/TransSimHub/sumo_datasets/train_three_3/./testflow.turndefs.xml"/>
    </input>

    <output>
        <output-file value="/home/wmn/TransSimHub/sumo_datasets/train_three_3/./routes/1.rou.xml"/>
    </output>

    <processing>
        <randomize-flows value="True"/>
        <accept-all-destinations value="True"/>
    </processing>

    <defaults>
        <departlane value="random"/>
    </defaults>

    <report>
        <no-warnings value="true"/>
    </report>

    <random_number>
        <seed value="777"/>
    </random_number>

</configuration>
-->

<routes xmlns:xsi="http://www.w3.org/2001/XMLSchema-instance" xsi:noNamespaceSchemaLocation="http://sumo.dlr.de/xsd/routes_file.xsd">
    <vType id="background" length="7.00" maxSpeed="15.00" color="155,89,182" tau="1.0"/>
    <vehicle id="E0__0__background.0" type="background" depart="3.58" departLane="random">
        <route edges="E0 E1"/>
    </vehicle>
    <vehicle id="-E3__0__background.0" type="background" depart="5.68" departLane="random">
        <route edges="-E3 -E0"/>
    </vehicle>
    <vehicle id="-E1__0__background.0" type="background" depart="6.54" departLane="random">
        <route edges="-E1 E3"/>
    </vehicle>
    <vehicle id="-E1__0__background.1" type="background" depart="6.80" departLane="random">
        <route edges="-E1 -E0"/>
    </vehicle>
    <vehicle id="-E1__0__background.2" type="background" depart="7.71" departLane="random">
        <route edges="-E1 -E0"/>
    </vehicle>
    <vehicle id="-E1__0__background.3" type="background" depart="10.82" departLane="random">
        <route edges="-E1 -E0"/>
    </vehicle>
    <vehicle id="E0__0__background.1" type="background" depart="10.88" departLane="random">
        <route edges="E0 E1"/>
    </vehicle>
    <vehicle id="E0__0__background.2" type="background" depart="11.03" departLane="random">
        <route edges="E0 E1"/>
    </vehicle>
    <vehicle id="-E1__0__background.4" type="background" depart="12.32" departLane="random">
        <route edges="-E1 -E0"/>
    </vehicle>
    <vehicle id="-E3__0__background.1" type="background" depart="15.68" departLane="random">
        <route edges="-E3 -E0"/>
    </vehicle>
    <vehicle id="E0__0__background.3" type="background" depart="15.93" departLane="random">
        <route edges="E0 E1"/>
    </vehicle>
    <vehicle id="E0__0__background.4" type="background" depart="17.37" departLane="random">
        <route edges="E0 E1"/>
    </vehicle>
    <vehicle id="-E1__0__background.5" type="background" depart="19.28" departLane="random">
        <route edges="-E1 -E0"/>
    </vehicle>
    <vehicle id="-E1__0__background.6" type="background" depart="20.32" departLane="random">
        <route edges="-E1 -E0"/>
    </vehicle>
    <vType id="ego" length="7.00" maxSpeed="17.00" color="26,188,156" tau="1.0"/>
    <vehicle id="-E1__0__ego.0" type="ego" depart="25.90" departLane="random">
        <route edges="-E1 -E0"/>
    </vehicle>
    <vehicle id="E0__0__background.5" type="background" depart="26.70" departLane="random">
        <route edges="E0 E1"/>
    </vehicle>
    <vehicle id="-E1__0__background.7" type="background" depart="26.95" departLane="random">
        <route edges="-E1 -E0"/>
    </vehicle>
    <vehicle id="E0__0__background.6" type="background" depart="28.79" departLane="random">
        <route edges="E0 E1"/>
    </vehicle>
    <vehicle id="-E1__0__background.8" type="background" depart="35.91" departLane="random">
        <route edges="-E1 -E0"/>
    </vehicle>
    <vehicle id="E0__0__background.7" type="background" depart="36.79" departLane="random">
        <route edges="E0 E1"/>
    </vehicle>
    <vehicle id="E0__0__background.8" type="background" depart="40.54" departLane="random">
        <route edges="E0 E1"/>
    </vehicle>
    <vehicle id="-E1__0__background.9" type="background" depart="40.85" departLane="random">
        <route edges="-E1 -E0"/>
    </vehicle>
    <vehicle id="-E1__0__background.10" type="background" depart="41.30" departLane="random">
        <route edges="-E1 -E0"/>
    </vehicle>
    <vehicle id="E0__0__background.9" type="background" depart="44.46" departLane="random">
        <route edges="E0 E1"/>
    </vehicle>
    <vehicle id="E0__0__ego.0" type="ego" depart="47.92" departLane="random">
        <route edges="E0 E1"/>
    </vehicle>
    <vehicle id="-E1__0__background.11" type="background" depart="48.23" departLane="random">
        <route edges="-E1 -E0"/>
    </vehicle>
    <vehicle id="E0__0__background.10" type="background" depart="52.13" departLane="random">
        <route edges="E0 E1"/>
    </vehicle>
    <vehicle id="E0__0__background.11" type="background" depart="54.94" departLane="random">
        <route edges="E0 E1"/>
    </vehicle>
    <vehicle id="-E3__0__background.2" type="background" depart="56.15" departLane="random">
        <route edges="-E3 -E0"/>
    </vehicle>
    <vehicle id="E0__1__background.0" type="background" depart="60.84" departLane="random">
        <route edges="E0 E1"/>
    </vehicle>
    <vehicle id="-E3__1__ego.0" type="ego" depart="64.16" departLane="random">
        <route edges="-E3 E1"/>
    </vehicle>
    <vehicle id="-E3__1__background.0" type="background" depart="65.99" departLane="random">
        <route edges="-E3 E1"/>
    </vehicle>
    <vehicle id="-E3__1__background.1" type="background" depart="67.95" departLane="random">
        <route edges="-E3 E1"/>
    </vehicle>
    <vehicle id="E0__1__background.1" type="background" depart="76.75" departLane="random">
        <route edges="E0 E1"/>
    </vehicle>
    <vehicle id="-E1__1__background.0" type="background" depart="83.35" departLane="random">
        <route edges="-E1 -E0"/>
    </vehicle>
    <vehicle id="-E3__1__background.2" type="background" depart="85.22" departLane="random">
        <route edges="-E3 -E0"/>
    </vehicle>
    <vehicle id="-E3__1__background.3" type="background" depart="86.23" departLane="random">
        <route edges="-E3 -E0"/>
    </vehicle>
    <vehicle id="-E3__1__background.4" type="background" depart="86.40" departLane="random">
        <route edges="-E3 E1"/>
    </vehicle>
    <vehicle id="-E3__1__background.5" type="background" depart="88.29" departLane="random">
        <route edges="-E3 E1"/>
    </vehicle>
    <vehicle id="-E3__1__background.6" type="background" depart="91.08" departLane="random">
        <route edges="-E3 E1"/>
    </vehicle>
    <vehicle id="-E3__1__background.7" type="background" depart="93.66" departLane="random">
        <route edges="-E3 E1"/>
    </vehicle>
    <vehicle id="-E3__1__background.8" type="background" depart="99.15" departLane="random">
        <route edges="-E3 -E0"/>
    </vehicle>
    <vehicle id="-E3__1__background.9" type="background" depart="103.19" departLane="random">
        <route edges="-E3 E1"/>
    </vehicle>
    <vehicle id="-E3__1__background.10" type="background" depart="106.02" departLane="random">
        <route edges="-E3 -E0"/>
    </vehicle>
    <vehicle id="E0__1__background.2" type="background" depart="106.02" departLane="random">
        <route edges="E0 E1"/>
    </vehicle>
    <vehicle id="-E3__1__background.11" type="background" depart="108.14" departLane="random">
        <route edges="-E3 -E0"/>
    </vehicle>
    <vehicle id="-E1__1__background.1" type="background" depart="111.52" departLane="random">
        <route edges="-E1 -E0"/>
    </vehicle>
    <vehicle id="-E1__1__background.2" type="background" depart="113.45" departLane="random">
        <route edges="-E1 -E0"/>
    </vehicle>
    <vehicle id="E0__2__background.0" type="background" depart="120.03" departLane="random">
        <route edges="E0 E1"/>
    </vehicle>
    <vehicle id="-E1__2__background.0" type="background" depart="121.54" departLane="random">
        <route edges="-E1 -E0"/>
    </vehicle>
    <vehicle id="-E1__2__background.1" type="background" depart="123.43" departLane="random">
        <route edges="-E1 -E0"/>
    </vehicle>
    <vehicle id="-E3__2__background.0" type="background" depart="123.47" departLane="random">
        <route edges="-E3 -E0"/>
    </vehicle>
    <vehicle id="E0__2__background.1" type="background" depart="124.54" departLane="random">
        <route edges="E0 E1"/>
    </vehicle>
    <vehicle id="E0__2__background.2" type="background" depart="129.31" departLane="random">
        <route edges="E0 E1"/>
    </vehicle>
    <vehicle id="-E3__2__background.1" type="background" depart="130.17" departLane="random">
        <route edges="-E3 E1"/>
    </vehicle>
    <vehicle id="E0__2__background.3" type="background" depart="131.26" departLane="random">
        <route edges="E0 E1"/>
    </vehicle>
    <vehicle id="-E3__2__background.2" type="background" depart="132.29" departLane="random">
        <route edges="-E3 -E0"/>
    </vehicle>
    <vehicle id="-E1__2__background.2" type="background" depart="132.41" departLane="random">
        <route edges="-E1 -E0"/>
    </vehicle>
    <vehicle id="-E1__2__background.3" type="background" depart="133.67" departLane="random">
        <route edges="-E1 -E0"/>
    </vehicle>
    <vehicle id="E0__2__background.4" type="background" depart="135.08" departLane="random">
        <route edges="E0 E1"/>
    </vehicle>
    <vehicle id="-E1__2__background.4" type="background" depart="135.59" departLane="random">
        <route edges="-E1 E3"/>
    </vehicle>
    <vehicle id="-E1__2__background.5" type="background" depart="136.46" departLane="random">
        <route edges="-E1 -E0"/>
    </vehicle>
    <vehicle id="-E1__2__background.6" type="background" depart="136.73" departLane="random">
        <route edges="-E1 -E0"/>
    </vehicle>
    <vehicle id="-E1__2__ego.0" type="ego" depart="138.84" departLane="random">
        <route edges="-E1 E3"/>
    </vehicle>
    <vehicle id="-E1__2__background.7" type="background" depart="140.50" departLane="random">
        <route edges="-E1 -E0"/>
    </vehicle>
    <vehicle id="-E1__2__background.8" type="background" depart="149.83" departLane="random">
        <route edges="-E1 E3"/>
    </vehicle>
    <vehicle id="E0__2__ego.0" type="ego" depart="150.89" departLane="random">
        <route edges="E0 E1"/>
    </vehicle>
    <vehicle id="-E1__2__background.9" type="background" depart="157.85" departLane="random">
        <route edges="-E1 -E0"/>
    </vehicle>
    <vehicle id="-E1__2__background.10" type="background" depart="162.87" departLane="random">
        <route edges="-E1 -E0"/>
    </vehicle>
    <vehicle id="E0__2__background.5" type="background" depart="163.28" departLane="random">
        <route edges="E0 E1"/>
    </vehicle>
    <vehicle id="-E1__2__background.11" type="background" depart="165.90" departLane="random">
        <route edges="-E1 -E0"/>
    </vehicle>
    <vehicle id="E0__2__background.6" type="background" depart="169.14" departLane="random">
        <route edges="E0 E3"/>
    </vehicle>
    <vehicle id="E0__2__background.7" type="background" depart="171.42" departLane="random">
        <route edges="E0 E1"/>
    </vehicle>
    <vehicle id="E0__2__background.8" type="background" depart="173.47" departLane="random">
        <route edges="E0 E3"/>
    </vehicle>
    <vehicle id="E0__2__background.9" type="background" depart="174.52" departLane="random">
        <route edges="E0 E1"/>
    </vehicle>
    <vehicle id="E0__2__background.10" type="background" depart="177.89" departLane="random">
        <route edges="E0 E1"/>
    </vehicle>
    <vehicle id="E0__2__background.11" type="background" depart="179.78" departLane="random">
        <route edges="E0 E1"/>
    </vehicle>
    <vehicle id="E0__3__background.0" type="background" depart="180.09" departLane="random">
        <route edges="E0 E1"/>
    </vehicle>
    <vehicle id="-E1__3__ego.0" type="ego" depart="180.19" departLane="random">
        <route edges="-E1 -E0"/>
    </vehicle>
    <vehicle id="E0__3__background.1" type="background" depart="181.72" departLane="random">
        <route edges="E0 E1"/>
    </vehicle>
    <vehicle id="-E1__3__background.0" type="background" depart="184.84" departLane="random">
        <route edges="-E1 -E0"/>
    </vehicle>
    <vehicle id="E0__3__background.2" type="background" depart="194.01" departLane="random">
        <route edges="E0 E3"/>
    </vehicle>
    <vehicle id="-E3__3__background.0" type="background" depart="196.26" departLane="random">
        <route edges="-E3 E1"/>
    </vehicle>
    <vehicle id="E0__3__background.3" type="background" depart="203.16" departLane="random">
        <route edges="E0 E1"/>
    </vehicle>
    <vehicle id="-E1__3__background.1" type="background" depart="204.69" departLane="random">
        <route edges="-E1 -E0"/>
    </vehicle>
    <vehicle id="-E1__3__background.2" type="background" depart="205.80" departLane="random">
        <route edges="-E1 -E0"/>
    </vehicle>
    <vehicle id="E0__3__background.4" type="background" depart="205.86" departLane="random">
        <route edges="E0 E1"/>
    </vehicle>
    <vehicle id="E0__3__background.5" type="background" depart="207.35" departLane="random">
        <route edges="E0 E1"/>
    </vehicle>
    <vehicle id="E0__3__background.6" type="background" depart="211.85" departLane="random">
        <route edges="E0 E1"/>
    </vehicle>
    <vehicle id="E0__3__background.7" type="background" depart="215.70" departLane="random">
        <route edges="E0 E1"/>
    </vehicle>
    <vehicle id="-E3__3__background.1" type="background" depart="217.85" departLane="random">
        <route edges="-E3 E1"/>
    </vehicle>
    <vehicle id="-E1__3__background.3" type="background" depart="219.52" departLane="random">
        <route edges="-E1 E3"/>
    </vehicle>
    <vehicle id="-E3__3__background.2" type="background" depart="219.82" departLane="random">
        <route edges="-E3 -E0"/>
    </vehicle>
    <vehicle id="-E1__3__background.4" type="background" depart="222.11" departLane="random">
        <route edges="-E1 -E0"/>
    </vehicle>
    <vehicle id="-E1__3__background.5" type="background" depart="222.53" departLane="random">
        <route edges="-E1 -E0"/>
    </vehicle>
    <vehicle id="-E1__3__background.6" type="background" depart="223.32" departLane="random">
        <route edges="-E1 -E0"/>
    </vehicle>
    <vehicle id="-E1__3__background.7" type="background" depart="223.99" departLane="random">
        <route edges="-E1 -E0"/>
    </vehicle>
    <vehicle id="-E1__3__background.8" type="background" depart="224.08" departLane="random">
        <route edges="-E1 -E0"/>
    </vehicle>
    <vehicle id="E0__3__background.8" type="background" depart="224.98" departLane="random">
        <route edges="E0 E1"/>
    </vehicle>
    <vehicle id="-E1__3__background.9" type="background" depart="225.08" departLane="random">
        <route edges="-E1 -E0"/>
    </vehicle>
    <vehicle id="-E1__3__background.10" type="background" depart="227.20" departLane="random">
        <route edges="-E1 -E0"/>
    </vehicle>
    <vehicle id="E0__3__background.9" type="background" depart="227.92" departLane="random">
        <route edges="E0 E1"/>
    </vehicle>
    <vehicle id="E0__3__background.10" type="background" depart="230.44" departLane="random">
        <route edges="E0 E1"/>
    </vehicle>
    <vehicle id="E0__3__ego.0" type="ego" depart="230.49" departLane="random">
        <route edges="E0 E1"/>
    </vehicle>
    <vehicle id="E0__3__background.11" type="background" depart="232.24" departLane="random">
        <route edges="E0 E1"/>
    </vehicle>
    <vehicle id="-E1__3__background.11" type="background" depart="238.72" departLane="random">
        <route edges="-E1 -E0"/>
    </vehicle>
    <vehicle id="-E1__4__background.0" type="background" depart="241.21" departLane="random">
        <route edges="-E1 -E0"/>
    </vehicle>
    <vehicle id="-E1__4__background.1" type="background" depart="247.55" departLane="random">
        <route edges="-E1 -E0"/>
    </vehicle>
    <vehicle id="-E1__4__background.2" type="background" depart="255.95" departLane="random">
        <route edges="-E1 -E0"/>
    </vehicle>
    <vehicle id="-E1__4__background.3" type="background" depart="258.20" departLane="random">
        <route edges="-E1 -E0"/>
    </vehicle>
    <vehicle id="-E1__4__background.4" type="background" depart="262.06" departLane="random">
        <route edges="-E1 E3"/>
    </vehicle>
    <vehicle id="E0__4__background.0" type="background" depart="263.58" departLane="random">
        <route edges="E0 E1"/>
    </vehicle>
    <vehicle id="-E1__4__ego.0" type="ego" depart="265.07" departLane="random">
        <route edges="-E1 -E0"/>
    </vehicle>
    <vehicle id="E0__4__background.1" type="background" depart="266.74" departLane="random">
        <route edges="E0 E1"/>
    </vehicle>
    <vehicle id="E0__4__background.2" type="background" depart="267.54" departLane="random">
        <route edges="E0 E1"/>
    </vehicle>
    <vehicle id="-E1__4__background.5" type="background" depart="268.08" departLane="random">
        <route edges="-E1 -E0"/>
    </vehicle>
    <vehicle id="E0__4__background.3" type="background" depart="269.73" departLane="random">
        <route edges="E0 E1"/>
    </vehicle>
    <vehicle id="E0__4__background.4" type="background" depart="271.72" departLane="random">
        <route edges="E0 E1"/>
    </vehicle>
    <vehicle id="E0__4__background.5" type="background" depart="273.39" departLane="random">
        <route edges="E0 E1"/>
    </vehicle>
    <vehicle id="-E1__4__background.6" type="background" depart="277.22" departLane="random">
        <route edges="-E1 -E0"/>
    </vehicle>
    <vehicle id="E0__4__background.6" type="background" depart="277.26" departLane="random">
        <route edges="E0 E1"/>
    </vehicle>
    <vehicle id="E0__4__background.7" type="background" depart="277.41" departLane="random">
        <route edges="E0 E1"/>
    </vehicle>
    <vehicle id="E0__4__background.8" type="background" depart="277.44" departLane="random">
        <route edges="E0 E1"/>
    </vehicle>
    <vehicle id="-E1__4__background.7" type="background" depart="279.01" departLane="random">
        <route edges="-E1 -E0"/>
    </vehicle>
    <vehicle id="-E3__4__background.0" type="background" depart="279.97" departLane="random">
        <route edges="-E3 -E0"/>
    </vehicle>
    <vehicle id="-E1__4__background.8" type="background" depart="281.40" departLane="random">
        <route edges="-E1 -E0"/>
    </vehicle>
    <vehicle id="E0__4__background.9" type="background" depart="284.76" departLane="random">
        <route edges="E0 E1"/>
    </vehicle>
    <vehicle id="-E3__4__background.1" type="background" depart="286.09" departLane="random">
        <route edges="-E3 -E0"/>
    </vehicle>
    <vehicle id="-E3__4__background.2" type="background" depart="290.50" departLane="random">
        <route edges="-E3 -E0"/>
    </vehicle>
    <vehicle id="E0__4__background.10" type="background" depart="292.22" departLane="random">
        <route edges="E0 E1"/>
    </vehicle>
    <vehicle id="E0__4__ego.0" type="ego" depart="293.82" departLane="random">
        <route edges="E0 E1"/>
    </vehicle>
    <vehicle id="E0__4__background.11" type="background" depart="296.58" departLane="random">
        <route edges="E0 E1"/>
    </vehicle>
    <vehicle id="-E1__4__background.9" type="background" depart="297.53" departLane="random">
        <route edges="-E1 -E0"/>
    </vehicle>
    <vehicle id="-E1__4__background.10" type="background" depart="297.56" departLane="random">
        <route edges="-E1 E3"/>
    </vehicle>
    <vehicle id="-E1__4__background.11" type="background" depart="299.25" departLane="random">
        <route edges="-E1 E3"/>
    </vehicle>
    <vehicle id="-E1__5__background.0" type="background" depart="303.44" departLane="random">
        <route edges="-E1 -E0"/>
    </vehicle>
    <vehicle id="-E1__5__background.1" type="background" depart="303.47" departLane="random">
        <route edges="-E1 -E0"/>
    </vehicle>
    <vehicle id="-E1__5__background.2" type="background" depart="305.34" departLane="random">
        <route edges="-E1 -E0"/>
    </vehicle>
    <vehicle id="-E1__5__background.3" type="background" depart="306.85" departLane="random">
        <route edges="-E1 -E0"/>
    </vehicle>
    <vehicle id="E0__5__background.0" type="background" depart="310.58" departLane="random">
        <route edges="E0 E1"/>
    </vehicle>
    <vehicle id="-E1__5__background.4" type="background" depart="310.71" departLane="random">
        <route edges="-E1 -E0"/>
    </vehicle>
    <vehicle id="E0__5__background.1" type="background" depart="310.81" departLane="random">
        <route edges="E0 E1"/>
    </vehicle>
    <vehicle id="-E1__5__background.5" type="background" depart="313.15" departLane="random">
        <route edges="-E1 -E0"/>
    </vehicle>
    <vehicle id="-E1__5__background.6" type="background" depart="313.62" departLane="random">
        <route edges="-E1 -E0"/>
    </vehicle>
    <vehicle id="E0__5__ego.0" type="ego" depart="320.24" departLane="random">
        <route edges="E0 E1"/>
    </vehicle>
    <vehicle id="E0__5__background.2" type="background" depart="327.01" departLane="random">
        <route edges="E0 E1"/>
    </vehicle>
    <vehicle id="E0__5__background.3" type="background" depart="328.11" departLane="random">
        <route edges="E0 E1"/>
    </vehicle>
    <vehicle id="E0__5__background.4" type="background" depart="330.61" departLane="random">
        <route edges="E0 E1"/>
    </vehicle>
    <vehicle id="E0__5__background.5" type="background" depart="330.73" departLane="random">
        <route edges="E0 E1"/>
    </vehicle>
    <vehicle id="E0__5__background.6" type="background" depart="331.28" departLane="random">
        <route edges="E0 E1"/>
    </vehicle>
    <vehicle id="E0__5__background.7" type="background" depart="331.50" departLane="random">
        <route edges="E0 E3"/>
    </vehicle>
    <vehicle id="-E1__5__background.7" type="background" depart="332.85" departLane="random">
        <route edges="-E1 -E0"/>
    </vehicle>
    <vehicle id="-E1__5__background.8" type="background" depart="333.56" departLane="random">
        <route edges="-E1 -E0"/>
    </vehicle>
    <vehicle id="E0__5__background.8" type="background" depart="333.57" departLane="random">
        <route edges="E0 E1"/>
    </vehicle>
    <vehicle id="E0__5__background.9" type="background" depart="341.64" departLane="random">
        <route edges="E0 E3"/>
    </vehicle>
    <vehicle id="E0__5__background.10" type="background" depart="342.09" departLane="random">
        <route edges="E0 E1"/>
    </vehicle>
    <vehicle id="-E1__5__background.9" type="background" depart="342.32" departLane="random">
        <route edges="-E1 -E0"/>
    </vehicle>
    <vehicle id="-E1__5__background.10" type="background" depart="344.33" departLane="random">
        <route edges="-E1 -E0"/>
    </vehicle>
    <vehicle id="E0__5__background.11" type="background" depart="345.20" departLane="random">
        <route edges="E0 E3"/>
    </vehicle>
    <vehicle id="-E3__5__background.0" type="background" depart="345.69" departLane="random">
        <route edges="-E3 -E0"/>
    </vehicle>
    <vehicle id="-E1__5__background.11" type="background" depart="345.79" departLane="random">
        <route edges="-E1 -E0"/>
    </vehicle>
    <vehicle id="-E1__5__ego.0" type="ego" depart="353.97" departLane="random">
        <route edges="-E1 -E0"/>
    </vehicle>
    <vehicle id="-E3__5__background.1" type="background" depart="355.68" departLane="random">
        <route edges="-E3 -E0"/>
    </vehicle>
    <vehicle id="-E3__5__background.2" type="background" depart="356.13" departLane="random">
        <route edges="-E3 E1"/>
    </vehicle>
    <vehicle id="E0__6__background.0" type="background" depart="364.98" departLane="random">
        <route edges="E0 E1"/>
    </vehicle>
    <vehicle id="E0__6__background.1" type="background" depart="365.02" departLane="random">
        <route edges="E0 E1"/>
    </vehicle>
    <vehicle id="E0__6__ego.0" type="ego" depart="367.40" departLane="random">
        <route edges="E0 E1"/>
    </vehicle>
    <vehicle id="E0__6__background.2" type="background" depart="369.68" departLane="random">
        <route edges="E0 E1"/>
    </vehicle>
    <vehicle id="E0__6__background.3" type="background" depart="373.00" departLane="random">
        <route edges="E0 E1"/>
    </vehicle>
    <vehicle id="-E1__6__background.0" type="background" depart="373.90" departLane="random">
        <route edges="-E1 -E0"/>
    </vehicle>
    <vehicle id="E0__6__background.4" type="background" depart="384.06" departLane="random">
        <route edges="E0 E1"/>
    </vehicle>
    <vehicle id="-E1__6__ego.0" type="ego" depart="386.84" departLane="random">
        <route edges="-E1 -E0"/>
    </vehicle>
    <vehicle id="-E1__6__background.1" type="background" depart="387.25" departLane="random">
        <route edges="-E1 -E0"/>
    </vehicle>
    <vehicle id="E0__6__background.5" type="background" depart="391.63" departLane="random">
        <route edges="E0 E1"/>
    </vehicle>
    <vehicle id="-E1__6__background.2" type="background" depart="392.07" departLane="random">
        <route edges="-E1 -E0"/>
    </vehicle>
    <vehicle id="E0__6__background.6" type="background" depart="393.36" departLane="random">
        <route edges="E0 E3"/>
    </vehicle>
    <vehicle id="E0__6__background.7" type="background" depart="393.90" departLane="random">
        <route edges="E0 E1"/>
    </vehicle>
    <vehicle id="-E1__6__background.3" type="background" depart="395.18" departLane="random">
        <route edges="-E1 -E0"/>
    </vehicle>
    <vehicle id="E0__6__background.8" type="background" depart="399.12" departLane="random">
        <route edges="E0 E1"/>
    </vehicle>
    <vehicle id="-E1__6__background.4" type="background" depart="399.24" departLane="random">
        <route edges="-E1 -E0"/>
    </vehicle>
    <vehicle id="E0__6__background.9" type="background" depart="399.75" departLane="random">
        <route edges="E0 E1"/>
    </vehicle>
    <vehicle id="-E3__6__background.0" type="background" depart="401.94" departLane="random">
        <route edges="-E3 E1"/>
    </vehicle>
    <vehicle id="-E3__6__background.1" type="background" depart="406.58" departLane="random">
        <route edges="-E3 -E0"/>
    </vehicle>
    <vehicle id="-E1__6__background.5" type="background" depart="407.47" departLane="random">
        <route edges="-E1 -E0"/>
    </vehicle>
    <vehicle id="E0__6__background.10" type="background" depart="408.47" departLane="random">
        <route edges="E0 E1"/>
    </vehicle>
    <vehicle id="-E1__6__background.6" type="background" depart="408.73" departLane="random">
        <route edges="-E1 -E0"/>
    </vehicle>
    <vehicle id="-E3__6__background.2" type="background" depart="408.84" departLane="random">
        <route edges="-E3 -E0"/>
    </vehicle>
    <vehicle id="-E1__6__background.7" type="background" depart="412.10" departLane="random">
        <route edges="-E1 -E0"/>
    </vehicle>
    <vehicle id="-E1__6__background.8" type="background" depart="415.96" departLane="random">
        <route edges="-E1 -E0"/>
    </vehicle>
    <vehicle id="E0__6__background.11" type="background" depart="417.06" departLane="random">
        <route edges="E0 E1"/>
    </vehicle>
    <vehicle id="-E1__6__background.9" type="background" depart="418.04" departLane="random">
        <route edges="-E1 -E0"/>
    </vehicle>
    <vehicle id="-E1__6__background.10" type="background" depart="418.25" departLane="random">
        <route edges="-E1 E3"/>
    </vehicle>
    <vehicle id="-E1__6__background.11" type="background" depart="418.92" departLane="random">
        <route edges="-E1 -E0"/>
    </vehicle>
    <vehicle id="E0__7__ego.0" type="ego" depart="422.73" departLane="random">
        <route edges="E0 E1"/>
    </vehicle>
    <vehicle id="E0__7__background.0" type="background" depart="424.93" departLane="random">
        <route edges="E0 E1"/>
    </vehicle>
    <vehicle id="E0__7__background.1" type="background" depart="427.67" departLane="random">
        <route edges="E0 E3"/>
    </vehicle>
    <vehicle id="E0__7__background.2" type="background" depart="432.88" departLane="random">
        <route edges="E0 E1"/>
    </vehicle>
    <vehicle id="-E1__7__background.0" type="background" depart="436.85" departLane="random">
        <route edges="-E1 -E0"/>
    </vehicle>
    <vehicle id="E0__7__background.3" type="background" depart="437.70" departLane="random">
        <route edges="E0 E1"/>
    </vehicle>
    <vehicle id="-E1__7__background.1" type="background" depart="438.24" departLane="random">
        <route edges="-E1 -E0"/>
    </vehicle>
    <vehicle id="-E1__7__background.2" type="background" depart="441.88" departLane="random">
        <route edges="-E1 -E0"/>
    </vehicle>
    <vehicle id="E0__7__background.4" type="background" depart="443.85" departLane="random">
        <route edges="E0 E1"/>
    </vehicle>
    <vehicle id="-E1__7__background.3" type="background" depart="446.41" departLane="random">
        <route edges="-E1 -E0"/>
    </vehicle>
    <vehicle id="-E3__7__background.0" type="background" depart="447.19" departLane="random">
        <route edges="-E3 -E0"/>
    </vehicle>
    <vehicle id="E0__7__background.5" type="background" depart="451.05" departLane="random">
        <route edges="E0 E1"/>
    </vehicle>