<?xml version="1.0" encoding="UTF-8"?>

<!-- generated on 2024-03-24 18:51:53 by Eclipse SUMO jtrrouter Version 1.19.0
<configuration xmlns:xsi="http://www.w3.org/2001/XMLSchema-instance" xsi:noNamespaceSchemaLocation="http://sumo.dlr.de/xsd/jtrrouterConfiguration.xsd">

    <input>
        <net-file value="/home/wmn/TransSimHub/sumo_datasets/train_three_3/./env/3phases.net.xml"/>
        <route-files value="/home/wmn/TransSimHub/sumo_datasets/train_three_3/./testflow.trip.xml"/>
        <turn-ratio-files value="/home/wmn/TransSimHub/sumo_datasets/train_three_3/./testflow.turndefs.xml"/>
    </input>

    <output>
        <output-file value="/home/wmn/TransSimHub/sumo_datasets/train_three_3/./routes/2.rou.xml"/>
    </output>

    <processing>
        <randomize-flows value="True"/>
        <accept-all-destinations value="True"/>
    </processing>

    <defaults>
        <departlane value="random"/>
    </defaults>

    <report>
        <no-warnings value="true"/>
    </report>

    <random_number>
        <seed value="777"/>
    </random_number>

</configuration>
-->

<routes xmlns:xsi="http://www.w3.org/2001/XMLSchema-instance" xsi:noNamespaceSchemaLocation="http://sumo.dlr.de/xsd/routes_file.xsd">
    <vType id="background" length="7.00" maxSpeed="15.00" color="155,89,182" tau="1.0"/>
    <vehicle id="-E3__0__background.0" type="background" depart="3.58" departLane="random">
        <route edges="-E3 -E0"/>
    </vehicle>
    <vehicle id="-E3__0__background.1" type="background" depart="6.54" departLane="random">
        <route edges="-E3 -E0"/>
    </vehicle>
    <vehicle id="-E3__0__background.2" type="background" depart="6.80" departLane="random">
        <route edges="-E3 E1"/>
    </vehicle>
    <vehicle id="-E3__0__background.3" type="background" depart="10.88" departLane="random">
        <route edges="-E3 -E0"/>
    </vehicle>
    <vehicle id="-E3__0__background.4" type="background" depart="11.03" departLane="random">
        <route edges="-E3 -E0"/>
    </vehicle>
    <vehicle id="-E1__0__background.0" type="background" depart="15.93" departLane="random">
        <route edges="-E1 E3"/>
    </vehicle>
    <vehicle id="-E3__0__background.5" type="background" depart="17.37" departLane="random">
        <route edges="-E3 E1"/>
    </vehicle>
    <vehicle id="-E3__0__background.6" type="background" depart="25.90" departLane="random">
        <route edges="-E3 -E0"/>
    </vehicle>
    <vehicle id="-E3__0__background.7" type="background" depart="26.70" departLane="random">
        <route edges="-E3 -E0"/>
    </vehicle>
    <vehicle id="-E3__0__background.8" type="background" depart="28.79" departLane="random">
        <route edges="-E3 -E0"/>
    </vehicle>
    <vehicle id="-E3__0__background.9" type="background" depart="36.79" departLane="random">
        <route edges="-E3 -E0"/>
    </vehicle>
    <vehicle id="-E3__0__background.10" type="background" depart="40.54" departLane="random">
        <route edges="-E3 -E0"/>
    </vehicle>
    <vehicle id="-E3__0__background.11" type="background" depart="40.85" departLane="random">
        <route edges="-E3 E1"/>
    </vehicle>
    <vehicle id="-E3__0__background.12" type="background" depart="44.46" departLane="random">
        <route edges="-E3 -E0"/>
    </vehicle>
    <vehicle id="E0__0__background.0" type="background" depart="47.92" departLane="random">
        <route edges="E0 E1"/>
    </vehicle>
    <vType id="ego" length="7.00" maxSpeed="17.00" color="26,188,156" tau="1.0"/>
    <vehicle id="-E3__0__ego.0" type="ego" depart="52.13" departLane="random">
        <route edges="-E3 -E0"/>
    </vehicle>
    <vehicle id="-E3__0__background.13" type="background" depart="54.94" departLane="random">
        <route edges="-E3 -E0"/>
    </vehicle>
    <vehicle id="-E3__1__background.0" type="background" depart="60.84" departLane="random">
        <route edges="-E3 -E0"/>
    </vehicle>
    <vehicle id="-E3__1__background.1" type="background" depart="65.68" departLane="random">
        <route edges="-E3 -E0"/>
    </vehicle>
    <vehicle id="-E3__1__background.2" type="background" depart="67.71" departLane="random">
        <route edges="-E3 -E0"/>
    </vehicle>
    <vehicle id="-E3__1__background.3" type="background" depart="70.82" departLane="random">
        <route edges="-E3 -E0"/>
    </vehicle>
    <vehicle id="E0__1__background.0" type="background" depart="72.32" departLane="random">
        <route edges="E0 E1"/>
    </vehicle>
    <vehicle id="-E3__1__background.4" type="background" depart="75.68" departLane="random">
        <route edges="-E3 E1"/>
    </vehicle>
    <vehicle id="-E3__1__background.5" type="background" depart="76.75" departLane="random">
        <route edges="-E3 E1"/>
    </vehicle>
    <vehicle id="-E3__1__background.6" type="background" depart="79.28" departLane="random">
        <route edges="-E3 -E0"/>
    </vehicle>
    <vehicle id="-E1__1__background.0" type="background" depart="80.32" departLane="random">
        <route edges="-E1 -E0"/>
    </vehicle>
    <vehicle id="-E3__1__background.7" type="background" depart="83.35" departLane="random">
        <route edges="-E3 -E0"/>
    </vehicle>
    <vehicle id="-E3__1__ego.0" type="ego" depart="86.95" departLane="random">
        <route edges="-E3 E1"/>
    </vehicle>
    <vehicle id="-E3__1__background.8" type="background" depart="95.91" departLane="random">
        <route edges="-E3 -E0"/>
    </vehicle>
    <vehicle id="-E3__1__background.9" type="background" depart="101.30" departLane="random">
        <route edges="-E3 -E0"/>
    </vehicle>
    <vehicle id="-E3__1__background.10" type="background" depart="106.02" departLane="random">
        <route edges="-E3 -E0"/>
    </vehicle>
    <vehicle id="-E3__1__background.11" type="background" depart="108.23" departLane="random">
        <route edges="-E3 -E0"/>
    </vehicle>
    <vehicle id="-E3__1__background.12" type="background" depart="111.52" departLane="random">
        <route edges="-E3 -E0"/>
    </vehicle>
    <vehicle id="-E3__1__background.13" type="background" depart="116.15" departLane="random">
        <route edges="-E3 E1"/>
    </vehicle>
    <vehicle id="-E1__2__background.0" type="background" depart="120.03" departLane="random">
        <route edges="-E1 -E0"/>
    </vehicle>
    <vehicle id="E0__2__background.0" type="background" depart="124.16" departLane="random">
        <route edges="E0 E1"/>
    </vehicle>
    <vehicle id="-E1__2__background.1" type="background" depart="124.54" departLane="random">
        <route edges="-E1 -E0"/>
    </vehicle>
    <vehicle id="E0__2__background.1" type="background" depart="125.99" departLane="random">
        <route edges="E0 E1"/>
    </vehicle>
    <vehicle id="E0__2__background.2" type="background" depart="127.95" departLane="random">
        <route edges="E0 E1"/>
    </vehicle>
    <vehicle id="-E1__2__background.2" type="background" depart="129.31" departLane="random">
        <route edges="-E1 -E0"/>
    </vehicle>
    <vehicle id="-E1__2__background.3" type="background" depart="131.26" departLane="random">
        <route edges="-E1 -E0"/>
    </vehicle>
    <vehicle id="-E1__2__background.4" type="background" depart="135.08" departLane="random">
        <route edges="-E1 -E0"/>
    </vehicle>
    <vehicle id="-E1__2__background.5" type="background" depart="135.59" departLane="random">
        <route edges="-E1 E3"/>
    </vehicle>
    <vehicle id="-E1__2__background.6" type="background" depart="138.84" departLane="random">
        <route edges="-E1 -E0"/>
    </vehicle>
    <vehicle id="E0__2__background.3" type="background" depart="145.22" departLane="random">
        <route edges="E0 E1"/>
    </vehicle>
    <vehicle id="E0__2__background.4" type="background" depart="146.23" departLane="random">
        <route edges="E0 E1"/>
    </vehicle>
    <vehicle id="E0__2__background.5" type="background" depart="146.40" departLane="random">
        <route edges="E0 E1"/>
    </vehicle>
    <vehicle id="E0__2__background.6" type="background" depart="148.29" departLane="random">
        <route edges="E0 E1"/>
    </vehicle>
    <vehicle id="-E1__2__background.7" type="background" depart="149.83" departLane="random">
        <route edges="-E1 -E0"/>
    </vehicle>
    <vehicle id="E0__2__background.7" type="background" depart="150.89" departLane="random">
        <route edges="E0 E1"/>
    </vehicle>
    <vehicle id="E0__2__background.8" type="background" depart="151.08" departLane="random">
        <route edges="E0 E1"/>
    </vehicle>
    <vehicle id="E0__2__background.9" type="background" depart="153.66" departLane="random">
        <route edges="E0 E1"/>
    </vehicle>
    <vehicle id="E0__2__background.10" type="background" depart="159.15" departLane="random">
        <route edges="E0 E1"/>
    </vehicle>
    <vehicle id="-E3__2__background.0" type="background" depart="162.87" departLane="random">
        <route edges="-E3 -E0"/>
    </vehicle>
    <vehicle id="E0__2__background.11" type="background" depart="163.19" departLane="random">
        <route edges="E0 E1"/>
    </vehicle>
    <vehicle id="-E1__2__background.8" type="background" depart="163.28" departLane="random">
        <route edges="-E1 -E0"/>
    </vehicle>
    <vehicle id="E0__2__background.12" type="background" depart="166.02" departLane="random">
        <route edges="E0 E1"/>
    </vehicle>
    <vehicle id="E0__2__background.13" type="background" depart="168.14" departLane="random">
        <route edges="E0 E1"/>
    </vehicle>
    <vehicle id="-E1__2__background.9" type="background" depart="169.14" departLane="random">
        <route edges="-E1 -E0"/>
    </vehicle>
    <vehicle id="-E1__2__background.10" type="background" depart="171.42" departLane="random">
        <route edges="-E1 -E0"/>
    </vehicle>
    <vehicle id="E0__2__ego.0" type="ego" depart="173.45" departLane="random">
        <route edges="E0 E1"/>
    </vehicle>
    <vehicle id="-E1__2__background.11" type="background" depart="173.47" departLane="random">
        <route edges="-E1 -E0"/>
    </vehicle>
    <vehicle id="-E1__2__background.12" type="background" depart="174.52" departLane="random">
        <route edges="-E1 -E0"/>
    </vehicle>
    <vehicle id="-E1__2__background.13" type="background" depart="177.89" departLane="random">
        <route edges="-E1 -E0"/>
    </vehicle>
    <vehicle id="-E1__2__ego.0" type="ego" depart="179.78" departLane="random">
        <route edges="-E1 -E0"/>
    </vehicle>
    <vehicle id="-E1__3__background.0" type="background" depart="180.09" departLane="random">
        <route edges="-E1 -E0"/>
    </vehicle>
    <vehicle id="-E1__3__background.1" type="background" depart="180.19" departLane="random">
        <route edges="-E1 -E0"/>
    </vehicle>
    <vehicle id="E0__3__background.0" type="background" depart="181.54" departLane="random">
        <route edges="E0 E1"/>
    </vehicle>
    <vehicle id="E0__3__background.1" type="background" depart="181.72" departLane="random">
        <route edges="E0 E1"/>
    </vehicle>
    <vehicle id="E0__3__background.2" type="background" depart="183.43" departLane="random">
        <route edges="E0 E1"/>
    </vehicle>
    <vehicle id="E0__3__background.3" type="background" depart="183.47" departLane="random">
        <route edges="E0 E3"/>
    </vehicle>
    <vehicle id="-E1__3__background.2" type="background" depart="184.84" departLane="random">
        <route edges="-E1 -E0"/>
    </vehicle>
    <vehicle id="E0__3__background.4" type="background" depart="190.17" departLane="random">
        <route edges="E0 E1"/>
    </vehicle>
    <vehicle id="E0__3__background.5" type="background" depart="192.29" departLane="random">
        <route edges="E0 E3"/>
    </vehicle>
    <vehicle id="E0__3__background.6" type="background" depart="192.41" departLane="random">
        <route edges="E0 E1"/>
    </vehicle>
    <vehicle id="E0__3__background.7" type="background" depart="193.67" departLane="random">
        <route edges="E0 E3"/>
    </vehicle>
    <vehicle id="-E1__3__background.3" type="background" depart="194.01" departLane="random">
        <route edges="-E1 -E0"/>
    </vehicle>
    <vehicle id="E0__3__background.8" type="background" depart="196.46" departLane="random">
        <route edges="E0 E1"/>
    </vehicle>
    <vehicle id="E0__3__background.9" type="background" depart="196.73" departLane="random">
        <route edges="E0 E1"/>
    </vehicle>
    <vehicle id="E0__3__background.10" type="background" depart="200.50" departLane="random">
        <route edges="E0 E1"/>
    </vehicle>
    <vehicle id="-E1__3__background.4" type="background" depart="203.16" departLane="random">
        <route edges="-E1 -E0"/>
    </vehicle>
    <vehicle id="-E1__3__background.5" type="background" depart="205.80" departLane="random">
        <route edges="-E1 -E0"/>
    </vehicle>
    <vehicle id="-E1__3__background.6" type="background" depart="205.86" departLane="random">
        <route edges="-E1 -E0"/>
    </vehicle>
    <vehicle id="E0__3__background.11" type="background" depart="207.35" departLane="random">
        <route edges="E0 E1"/>
    </vehicle>
    <vehicle id="-E1__3__background.7" type="background" depart="211.85" departLane="random">
        <route edges="-E1 E3"/>
    </vehicle>
    <vehicle id="-E1__3__background.8" type="background" depart="215.70" departLane="random">
        <route edges="-E1 -E0"/>
    </vehicle>
    <vehicle id="E0__3__background.12" type="background" depart="217.85" departLane="random">
        <route edges="E0 E1"/>
    </vehicle>
    <vehicle id="-E1__3__background.9" type="background" depart="219.52" departLane="random">
        <route edges="-E1 -E0"/>
    </vehicle>
    <vehicle id="-E3__3__background.0" type="background" depart="222.11" departLane="random">
        <route edges="-E3 E1"/>
    </vehicle>
    <vehicle id="-E1__3__ego.0" type="ego" depart="224.98" departLane="random">
        <route edges="-E1 -E0"/>
    </vehicle>
    <vehicle id="E0__3__ego.0" type="ego" depart="225.90" departLane="random">
        <route edges="E0 E1"/>
    </vehicle>
    <vehicle id="-E1__3__background.10" type="background" depart="227.92" departLane="random">
        <route edges="-E1 -E0"/>
    </vehicle>
    <vehicle id="-E1__3__background.11" type="background" depart="230.44" departLane="random">
        <route edges="-E1 -E0"/>
    </vehicle>
    <vehicle id="E0__3__background.13" type="background" depart="230.49" departLane="random">
        <route edges="E0 E1"/>
    </vehicle>
    <vehicle id="-E1__3__background.12" type="background" depart="232.24" departLane="random">
        <route edges="-E1 E3"/>
    </vehicle>
    <vehicle id="-E1__3__background.13" type="background" depart="238.72" departLane="random">
        <route edges="-E1 -E0"/>
    </vehicle>
    <vehicle id="-E1__4__background.0" type="background" depart="241.21" departLane="random">
        <route edges="-E1 -E0"/>
    </vehicle>
    <vehicle id="E0__4__background.0" type="background" depart="243.60" departLane="random">
        <route edges="E0 E1"/>
    </vehicle>
    <vehicle id="-E1__4__background.1" type="background" depart="247.55" departLane="random">
        <route edges="-E1 -E0"/>
    </vehicle>
    <vehicle id="E0__4__background.1" type="background" depart="249.26" departLane="random">
        <route edges="E0 E1"/>
    </vehicle>
    <vehicle id="E0__4__background.2" type="background" depart="257.41" departLane="random">
        <route edges="E0 E1"/>
    </vehicle>
    <vehicle id="-E3__4__background.0" type="background" depart="258.20" departLane="random">
        <route edges="-E3 E1"/>
    </vehicle>
    <vehicle id="E0__4__background.3" type="background" depart="262.40" departLane="random">
        <route edges="E0 E1"/>
    </vehicle>
    <vehicle id="-E1__4__background.2" type="background" depart="263.58" departLane="random">
        <route edges="-E1 -E0"/>
    </vehicle>
    <vehicle id="E0__4__background.4" type="background" depart="264.84" departLane="random">
        <route edges="E0 E1"/>
    </vehicle>
    <vehicle id="-E1__4__background.3" type="background" depart="265.07" departLane="random">
        <route edges="-E1 -E0"/>
    </vehicle>
    <vehicle id="-E1__4__background.4" type="background" depart="266.74" departLane="random">
        <route edges="-E1 -E0"/>
    </vehicle>
    <vehicle id="E0__4__background.5" type="background" depart="267.54" departLane="random">
        <route edges="E0 E3"/>
    </vehicle>
    <vehicle id="E0__4__background.6" type="background" depart="269.73" departLane="random">
        <route edges="E0 E1"/>
    </vehicle>
    <vehicle id="-E1__4__background.5" type="background" depart="271.72" departLane="random">
        <route edges="-E1 -E0"/>
    </vehicle>
    <vehicle id="-E1__4__background.6" type="background" depart="273.39" departLane="random">
        <route edges="-E1 -E0"/>
    </vehicle>
    <vehicle id="E0__4__background.7" type="background" depart="274.31" departLane="random">
        <route edges="E0 E1"/>
    </vehicle>
    <vehicle id="E0__4__background.8" type="background" depart="276.68" departLane="random">
        <route edges="E0 E1"/>
    </vehicle>
    <vehicle id="E0__4__background.9" type="background" depart="277.11" departLane="random">
        <route edges="E0 E1"/>
    </vehicle>
    <vehicle id="-E1__4__ego.0" type="ego" depart="277.26" departLane="random">
        <route edges="-E1 -E0"/>
    </vehicle>
    <vehicle id="-E1__4__background.7" type="background" depart="277.41" departLane="random">
        <route edges="-E1 -E0"/>
    </vehicle>
    <vehicle id="-E1__4__background.8" type="background" depart="277.44" departLane="random">
        <route edges="-E1 -E0"/>
    </vehicle>
    <vehicle id="-E1__4__background.9" type="background" depart="279.01" departLane="random">
        <route edges="-E1 -E0"/>
    </vehicle>
    <vehicle id="E0__4__ego.0" type="ego" depart="283.32" departLane="random">
        <route edges="E0 E1"/>
    </vehicle>
    <vehicle id="-E1__4__background.10" type="background" depart="284.76" departLane="random">
        <route edges="-E1 -E0"/>
    </vehicle>
    <vehicle id="E0__4__background.10" type="background" depart="285.63" departLane="random">
        <route edges="E0 E1"/>
    </vehicle>
    <vehicle id="E0__4__background.11" type="background" depart="292.22" departLane="random">
        <route edges="E0 E1"/>
    </vehicle>
    <vehicle id="E0__4__background.12" type="background" depart="295.70" departLane="random">
        <route edges="E0 E1"/>
    </vehicle>
    <vehicle id="E0__4__background.13" type="background" depart="295.99" departLane="random">
        <route edges="E0 E1"/>
    </vehicle>
    <vehicle id="-E1__4__background.11" type="background" depart="296.58" departLane="random">
        <route edges="-E1 -E0"/>
    </vehicle>
    <vehicle id="-E1__4__background.12" type="background" depart="297.53" departLane="random">
        <route edges="-E1 -E0"/>
    </vehicle>
    <vehicle id="-E1__4__background.13" type="background" depart="297.56" departLane="random">
        <route edges="-E1 E3"/>
    </vehicle>
    <vehicle id="-E3__5__background.0" type="background" depart="310.58" departLane="random">
        <route edges="-E3 E1"/>
    </vehicle>
    <vehicle id="E0__5__background.0" type="background" depart="315.95" departLane="random">
        <route edges="E0 E1"/>
    </vehicle>
    <vehicle id="-E3__5__background.1" type="background" depart="320.24" departLane="random">
        <route edges="-E3 -E0"/>
    </vehicle>
    <vehicle id="-E3__5__background.2" type="background" depart="322.06" departLane="random">
        <route edges="-E3 -E0"/>
    </vehicle>
    <vehicle id="-E3__5__background.3" type="background" depart="327.01" departLane="random">
        <route edges="-E3 E1"/>
    </vehicle>
    <vehicle id="-E3__5__background.4" type="background" depart="328.08" departLane="random">
        <route edges="-E3 -E0"/>
    </vehicle>
    <vehicle id="-E3__5__background.5" type="background" depart="328.11" departLane="random">
        <route edges="-E3 -E0"/>
    </vehicle>
    <vehicle id="-E3__5__background.6" type="background" depart="330.61" departLane="random">
        <route edges="-E3 -E0"/>
    </vehicle>
    <vehicle id="-E3__5__background.7" type="background" depart="333.57" departLane="random">
        <route edges="-E3 -E0"/>
    </vehicle>
    <vehicle id="-E3__5__background.8" type="background" depart="337.22" departLane="random">
        <route edges="-E3 -E0"/>
    </vehicle>
    <vehicle id="-E3__5__background.9" type="background" depart="339.97" departLane="random">
        <route edges="-E3 -E0"/>
    </vehicle>
    <vehicle id="-E1__5__background.0" type="background" depart="341.40" departLane="random">
        <route edges="-E1 -E0"/>
    </vehicle>
    <vehicle id="-E3__5__background.10" type="background" depart="341.64" departLane="random">
        <route edges="-E3 -E0"/>
    </vehicle>
    <vehicle id="-E3__5__background.11" type="background" depart="342.09" departLane="random">
        <route edges="-E3 -E0"/>
    </vehicle>
    <vehicle id="-E3__5__background.12" type="background" depart="346.09" departLane="random">
        <route edges="-E3 -E0"/>
    </vehicle>
    <vehicle id="-E3__5__background.13" type="background" depart="350.50" departLane="random">
        <route edges="-E3 -E0"/>
    </vehicle>
    <vehicle id="-E3__5__ego.0" type="ego" depart="359.25" departLane="random">
        <route edges="-E3 -E0"/>
    </vehicle>
    <vehicle id="-E1__6__background.0" type="background" depart="363.44" departLane="random">
        <route edges="-E1 -E0"/>
    </vehicle>
    <vehicle id="E0__6__background.0" type="background" depart="363.47" departLane="random">
        <route edges="E0 E1"/>
    </vehicle>
    <vehicle id="-E1__6__background.1" type="background" depart="364.98" departLane="random">
        <route edges="-E1 -E0"/>
    </vehicle>
    <vehicle id="E0__6__background.1" type="background" depart="365.34" departLane="random">
        <route edges="E0 E1"/>
    </vehicle>
    <vehicle id="-E1__6__background.2" type="background" depart="366.85" departLane="random">
        <route edges="-E1 -E0"/>
    </vehicle>
    <vehicle id="-E1__6__background.3" type="background" depart="367.40" departLane="random">
        <route edges="-E1 E3"/>
    </vehicle>
    <vehicle id="-E1__6__background.4" type="background" depart="369.68" departLane="random">
        <route edges="-E1 E3"/>
    </vehicle>
    <vehicle id="-E1__6__ego.0" type="ego" depart="370.71" departLane="random">
        <route edges="-E1 -E0"/>
    </vehicle>
    <vehicle id="E0__6__background.2" type="background" depart="370.81" departLane="random">
        <route edges="E0 E1"/>
    </vehicle>
    <vehicle id="-E1__6__background.5" type="background" depart="373.00" departLane="random">
        <route edges="-E1 -E0"/>
    </vehicle>
    <vehicle id="E0__6__background.3" type="background" depart="373.15" departLane="random">
        <route edges="E0 E1"/>
    </vehicle>
    <vehicle id="E0__6__background.4" type="background" depart="373.62" departLane="random">
        <route edges="E0 E1"/>
    </vehicle>
    <vehicle id="E0__6__background.5" type="background" depart="390.73" departLane="random">
        <route edges="E0 E1"/>
    </vehicle>
    <vehicle id="E0__6__background.6" type="background" depart="391.28" departLane="random">
        <route edges="E0 E1"/>
    </vehicle>
    <vehicle id="E0__6__ego.0" type="ego" depart="391.50" departLane="random">
        <route edges="E0 E1"/>
    </vehicle>
    <vehicle id="-E1__6__background.6" type="background" depart="391.63" departLane="random">
        <route edges="-E1 -E0"/>
    </vehicle>
    <vehicle id="E0__6__background.7" type="background" depart="392.85" departLane="random">
        <route edges="E0 E1"/>
    </vehicle>
    <vehicle id="-E1__6__background.7" type="background" depart="393.36" departLane="random">
        <route edges="-E1 -E0"/>
    </vehicle>
    <vehicle id="E0__6__background.8" type="background" depart="393.56" departLane="random">
        <route edges="E0 E1"/>
    </vehicle>
    <vehicle id="-E3__6__background.0" type="background" depart="393.90" departLane="random">
        <route edges="-E3 -E0"/>
    </vehicle>
    <vehicle id="-E1__6__background.8" type="background" depart="399.75" departLane="random">
        <route edges="-E1 -E0"/>
    </vehicle>
    <vehicle id="E0__6__background.9" type="background" depart="402.32" departLane="random">
        <route edges="E0 E1"/>
    </vehicle>
    <vehicle id="E0__6__background.10" type="background" depart="404.33" departLane="random">
        <route edges="E0 E1"/>
    </vehicle>
    <vehicle id="E0__6__background.11" type="background" depart="405.20" departLane="random">
        <route edges="E0 E1"/>
    </vehicle>
    <vehicle id="-E1__6__background.9" type="background" depart="405.69" departLane="random">
        <route edges="-E1 -E0"/>
    </vehicle>
    <vehicle id="E0__6__background.12" type="background" depart="405.79" departLane="random">
        <route edges="E0 E1"/>
    </vehicle>
    <vehicle id="-E1__6__background.10" type="background" depart="408.47" departLane="random">
        <route edges="-E1 -E0"/>
    </vehicle>
    <vehicle id="E0__6__background.13" type="background" depart="413.97" departLane="random">
        <route edges="E0 E1"/>
    </vehicle>
    <vehicle id="-E1__6__background.11" type="background" depart="415.68" departLane="random">
        <route edges="-E1 -E0"/>
    </vehicle>
    <vehicle id="-E1__6__background.12" type="background" depart="416.13" departLane="random">
        <route edges="-E1 -E0"/>
    </vehicle>
    <vehicle id="-E1__6__background.13" type="background" depart="417.06" departLane="random">
        <route edges="-E1 -E0"/>
    </vehicle>
    <vehicle id="-E1__7__background.0" type="background" depart="420.93" departLane="random">
        <route edges="-E1 -E0"/>
    </vehicle>
    <vehicle id="E0__7__background.0" type="background" depart="421.02" departLane="random">
        <route edges="E0 E3"/>
    </vehicle>
    <vehicle id="E0__7__background.1" type="background" depart="424.61" departLane="random">
        <route edges="E0 E1"/>
    </vehicle>
    <vehicle id="E0__7__background.2" type="background" depart="425.98" departLane="random">
        <route edges="E0 E1"/>
    </vehicle>
    <vehicle id="E0__7__background.3" type="background" depart="431.59" departLane="random">
        <route edges="E0 E1"/>
    </vehicle>
    <vehicle id="E0__7__background.4" type="background" depart="435.04" departLane="random">
        <route edges="E0 E1"/>
    </vehicle>
    <vehicle id="E0__7__background.5" type="background" depart="437.02" departLane="random">
        <route edges="E0 E1"/>
    </vehicle>
    <vehicle id="-E3__7__background.0" type="background" depart="437.70" departLane="random">
        <route edges="-E3 -E0"/>
    </vehicle>
    <vehicle id="-E1__7__background.1" type="background" depart="440.67" departLane="random">
        <route edges="-E1 -E0"/>
    </vehicle>
    <vehicle id="-E1__7__background.2" type="background" depart="442.25" departLane="random">
        <route edges="-E1 -E0"/>
    </vehicle>
    <vehicle id="E0__7__background.6" type="background" depart="442.54" departLane="random">
        <route edges="E0 E3"/>
    </vehicle>
    <vehicle id="-E1__7__background.3" type="background" depart="442.94" departLane="random">
        <route edges="-E1 -E0"/>
    </vehicle>
    <vehicle id="-E1__7__background.4" type="background" depart="442.96" departLane="random">
        <route edges="-E1 -E0"/>
    </vehicle>
    <vehicle id="-E1__7__ego.0" type="ego" depart="443.79" departLane="random">
        <route edges="-E1 -E0"/>
    </vehicle>
    <vehicle id="E0__7__background.7" type="background" depart="443.95" departLane="random">
        <route edges="E0 E1"/>
    </vehicle>
    <vehicle id="-E1__7__background.5" type="background" depart="449.11" departLane="random">
        <route edges="-E1 -E0"/>
    </vehicle>
    <vehicle id="-E1__7__background.6" type="background" depart="449.77" departLane="random">
        <route edges="-E1 -E0"/>
    </vehicle>
    <vehicle id="-E1__7__background.7" type="background" depart="450.31" departLane="random">
        <route edges="-E1 -E0"/>
    </vehicle>
    <vehicle id="E0__7__background.8" type="background" depart="454.33" departLane="random">
        <route edges="E0 E1"/>
    </vehicle>
    <vehicle id="-E1__7__background.8" type="background" depart="455.51" departLane="random">
        <route edges="-E1 -E0"/>
    </vehicle>
    <vehicle id="E0__7__background.9" type="background" depart="457.00" departLane="random">
        <route edges="E0 E1"/>
    </vehicle>
    <vehicle id="-E1__7__background.9" type="background" depart="457.15" departLane="random">
        <route edges="-E1 -E0"/>
    </vehicle>
    <vehicle id="-E1__7__background.10" type="background" depart="458.52" departLane="random">
        <route edges="-E1 -E0"/>
    </vehicle>
    <vehicle id="E0__7__ego.0" type="ego" depart="459.12" departLane="random">
        <route edges="E0 E1"/>
    </vehicle>
    <vehicle id="-E1__7__background.11" type="background" depart="459.42" departLane="random">
        <route edges="-E1 E3"/>
    </vehicle>
    <vehicle id="E0__7__background.10" type="background" depart="461.20" departLane="random">
        <route edges="E0 E1"/>
    </vehicle>
    <vehicle id="-E1__7__background.12" type="background" depart="465.21" departLane="random">
        <route edges="-E1 -E0"/>
    </vehicle>
    <vehicle id="E0__7__background.11" type="background" depart="472.20" departLane="random">
        <route edges="E0 E1"/>
    </vehicle>
    <vehicle id="-E1__7__background.13" type="background" depart="473.98" departLane="random">
        <route edges="-E1 E3"/>
    </vehicle>