<?xml version="1.0" encoding="UTF-8"?>

<!-- generated on 2024-03-24 18:46:26 by Eclipse SUMO jtrrouter Version 1.19.0
<configuration xmlns:xsi="http://www.w3.org/2001/XMLSchema-instance" xsi:noNamespaceSchemaLocation="http://sumo.dlr.de/xsd/jtrrouterConfiguration.xsd">

    <input>
        <net-file value="/home/wmn/TransSimHub/sumo_datasets/train_four_345/./env/4phases.net.xml"/>
        <route-files value="/home/wmn/TransSimHub/sumo_datasets/train_four_345/./testflow.trip.xml"/>
        <turn-ratio-files value="/home/wmn/TransSimHub/sumo_datasets/train_four_345/./testflow.turndefs.xml"/>
    </input>

    <output>
        <output-file value="/home/wmn/TransSimHub/sumo_datasets/train_four_345/./routes/4.rou.xml"/>
    </output>

    <processing>
        <randomize-flows value="True"/>
        <accept-all-destinations value="True"/>
    </processing>

    <defaults>
        <departlane value="random"/>
    </defaults>

    <report>
        <no-warnings value="true"/>
    </report>

    <random_number>
        <seed value="777"/>
    </random_number>

</configuration>
-->

<routes xmlns:xsi="http://www.w3.org/2001/XMLSchema-instance" xsi:noNamespaceSchemaLocation="http://sumo.dlr.de/xsd/routes_file.xsd">
    <vType id="background" length="7.00" maxSpeed="15.00" color="155,89,182" tau="1.0"/>
    <vehicle id="-E3__0__background.0" type="background" depart="0.84" departLane="random">
        <route edges="-E3 E2"/>
    </vehicle>
    <vehicle id="E0__0__background.0" type="background" depart="3.58" departLane="random">
        <route edges="E0 E1"/>
    </vehicle>
    <vehicle id="-E1__0__background.0" type="background" depart="5.68" departLane="random">
        <route edges="-E1 -E0"/>
    </vehicle>
    <vehicle id="-E1__0__background.1" type="background" depart="6.54" departLane="random">
        <route edges="-E1 -E0"/>
    </vehicle>
    <vehicle id="-E1__0__background.2" type="background" depart="6.80" departLane="random">
        <route edges="-E1 -E0"/>
    </vehicle>
    <vehicle id="-E1__0__background.3" type="background" depart="7.71" departLane="random">
        <route edges="-E1 -E0"/>
    </vehicle>
    <vehicle id="-E1__0__background.4" type="background" depart="10.82" departLane="random">
        <route edges="-E1 -E0"/>
    </vehicle>
    <vehicle id="E0__0__background.1" type="background" depart="10.88" departLane="random">
        <route edges="E0 E1"/>
    </vehicle>
    <vehicle id="E0__0__background.2" type="background" depart="11.03" departLane="random">
        <route edges="E0 E1"/>
    </vehicle>
    <vehicle id="-E1__0__background.5" type="background" depart="12.32" departLane="random">
        <route edges="-E1 -E0"/>
    </vehicle>
    <vehicle id="-E2__0__background.0" type="background" depart="15.68" departLane="random">
        <route edges="-E2 E3"/>
    </vehicle>
    <vehicle id="E0__0__background.3" type="background" depart="15.93" departLane="random">
        <route edges="E0 E1"/>
    </vehicle>
    <vehicle id="-E3__0__background.1" type="background" depart="16.75" departLane="random">
        <route edges="-E3 -E0"/>
    </vehicle>
    <vehicle id="E0__0__background.4" type="background" depart="17.37" departLane="random">
        <route edges="E0 E1"/>
    </vehicle>
    <vehicle id="-E1__0__background.6" type="background" depart="19.28" departLane="random">
        <route edges="-E1 -E0"/>
    </vehicle>
    <vehicle id="-E1__0__background.7" type="background" depart="20.32" departLane="random">
        <route edges="-E1 -E0"/>
    </vehicle>
    <vehicle id="E0__0__background.5" type="background" depart="25.90" departLane="random">
        <route edges="E0 E1"/>
    </vehicle>
    <vehicle id="E0__0__background.6" type="background" depart="26.70" departLane="random">
        <route edges="E0 E1"/>
    </vehicle>
    <vehicle id="-E1__0__background.8" type="background" depart="26.95" departLane="random">
        <route edges="-E1 -E0"/>
    </vehicle>
    <vehicle id="E0__0__background.7" type="background" depart="28.79" departLane="random">
        <route edges="E0 E1"/>
    </vehicle>
    <vehicle id="-E1__0__background.9" type="background" depart="35.91" departLane="random">
        <route edges="-E1 -E0"/>
    </vehicle>
    <vehicle id="E0__0__background.8" type="background" depart="36.79" departLane="random">
        <route edges="E0 E1"/>
    </vehicle>
    <vehicle id="E0__0__background.9" type="background" depart="40.54" departLane="random">
        <route edges="E0 E1"/>
    </vehicle>
    <vType id="ego" length="7.00" maxSpeed="17.00" color="26,188,156" tau="1.0"/>
    <vehicle id="-E1__0__ego.0" type="ego" depart="40.85" departLane="random">
        <route edges="-E1 -E0"/>
    </vehicle>
    <vehicle id="-E1__0__background.10" type="background" depart="41.30" departLane="random">
        <route edges="-E1 -E0"/>
    </vehicle>
    <vehicle id="E0__0__background.10" type="background" depart="44.46" departLane="random">
        <route edges="E0 E1"/>
    </vehicle>
    <vehicle id="-E2__0__background.1" type="background" depart="46.02" departLane="random">
        <route edges="-E2 E1"/>
    </vehicle>
    <vehicle id="E0__0__ego.0" type="ego" depart="47.92" departLane="random">
        <route edges="E0 E1"/>
    </vehicle>
    <vehicle id="-E1__0__background.11" type="background" depart="48.23" departLane="random">
        <route edges="-E1 -E0"/>
    </vehicle>
    <vehicle id="E0__0__background.11" type="background" depart="52.13" departLane="random">
        <route edges="E0 E1"/>
    </vehicle>
    <vehicle id="E0__0__background.12" type="background" depart="54.94" departLane="random">
        <route edges="E0 E1"/>
    </vehicle>
    <vehicle id="-E1__0__background.12" type="background" depart="56.15" departLane="random">
        <route edges="-E1 -E0"/>
    </vehicle>
    <vehicle id="-E3__1__background.0" type="background" depart="60.03" departLane="random">
        <route edges="-E3 E2"/>
    </vehicle>
    <vehicle id="-E1__1__background.0" type="background" depart="64.16" departLane="random">
        <route edges="-E1 -E0"/>
    </vehicle>
    <vehicle id="-E3__1__ego.0" type="ego" depart="64.54" departLane="random">
        <route edges="-E3 E2"/>
    </vehicle>
    <vehicle id="-E2__1__background.0" type="background" depart="65.99" departLane="random">
        <route edges="-E2 E3"/>
    </vehicle>
    <vehicle id="-E2__1__background.1" type="background" depart="67.95" departLane="random">
        <route edges="-E2 E3"/>
    </vehicle>
    <vehicle id="-E3__1__background.1" type="background" depart="69.31" departLane="random">
        <route edges="-E3 E2"/>
    </vehicle>
    <vehicle id="-E3__1__background.2" type="background" depart="71.26" departLane="random">
        <route edges="-E3 E2"/>
    </vehicle>
    <vehicle id="-E3__1__background.3" type="background" depart="75.08" departLane="random">
        <route edges="-E3 E2"/>
    </vehicle>
    <vehicle id="-E3__1__background.4" type="background" depart="75.59" departLane="random">
        <route edges="-E3 E2"/>
    </vehicle>
    <vehicle id="-E3__1__background.5" type="background" depart="78.84" departLane="random">
        <route edges="-E3 E2"/>
    </vehicle>
    <vehicle id="E0__1__background.0" type="background" depart="83.35" departLane="random">
        <route edges="E0 E1"/>
    </vehicle>
    <vehicle id="-E2__1__background.2" type="background" depart="85.22" departLane="random">
        <route edges="-E2 E3"/>
    </vehicle>
    <vehicle id="-E2__1__background.3" type="background" depart="86.23" departLane="random">
        <route edges="-E2 E3"/>
    </vehicle>
    <vehicle id="-E2__1__background.4" type="background" depart="86.40" departLane="random">
        <route edges="-E2 E3"/>
    </vehicle>
    <vehicle id="-E2__1__background.5" type="background" depart="88.29" departLane="random">
        <route edges="-E2 E3"/>
    </vehicle>
    <vehicle id="-E3__1__background.6" type="background" depart="89.83" departLane="random">
        <route edges="-E3 -E0"/>
    </vehicle>
    <vehicle id="-E2__1__background.6" type="background" depart="90.89" departLane="random">
        <route edges="-E2 E3"/>
    </vehicle>
    <vehicle id="-E2__1__background.7" type="background" depart="91.08" departLane="random">
        <route edges="-E2 E3"/>
    </vehicle>
    <vehicle id="-E2__1__background.8" type="background" depart="93.66" departLane="random">
        <route edges="-E2 E3"/>
    </vehicle>
    <vehicle id="-E2__1__background.9" type="background" depart="99.15" departLane="random">
        <route edges="-E2 E3"/>
    </vehicle>
    <vehicle id="-E2__1__background.10" type="background" depart="103.19" departLane="random">
        <route edges="-E2 E3"/>
    </vehicle>
    <vehicle id="-E3__1__background.7" type="background" depart="103.28" departLane="random">
        <route edges="-E3 E2"/>
    </vehicle>
    <vehicle id="-E2__1__ego.0" type="ego" depart="106.02" departLane="random">
        <route edges="-E2 E3"/>
    </vehicle>
    <vehicle id="-E2__1__background.11" type="background" depart="108.14" departLane="random">
        <route edges="-E2 E3"/>
    </vehicle>
    <vehicle id="-E3__1__background.8" type="background" depart="109.14" departLane="random">
        <route edges="-E3 E1"/>
    </vehicle>
    <vehicle id="-E3__1__background.9" type="background" depart="111.42" departLane="random">
        <route edges="-E3 E2"/>
    </vehicle>
    <vehicle id="E0__1__background.1" type="background" depart="111.52" departLane="random">
        <route edges="E0 E1"/>
    </vehicle>
    <vehicle id="-E1__1__background.1" type="background" depart="113.45" departLane="random">
        <route edges="-E1 E2"/>
    </vehicle>
    <vehicle id="-E3__1__background.10" type="background" depart="113.47" departLane="random">
        <route edges="-E3 E2"/>
    </vehicle>
    <vehicle id="-E3__1__background.11" type="background" depart="114.52" departLane="random">
        <route edges="-E3 E2"/>
    </vehicle>
    <vehicle id="-E3__1__background.12" type="background" depart="117.89" departLane="random">
        <route edges="-E3 E2"/>
    </vehicle>
    <vehicle id="-E2__1__background.12" type="background" depart="119.78" departLane="random">
        <route edges="-E2 E3"/>
    </vehicle>
    <vehicle id="-E1__2__background.0" type="background" depart="120.09" departLane="random">
        <route edges="-E1 -E0"/>
    </vehicle>
    <vehicle id="-E1__2__background.1" type="background" depart="120.19" departLane="random">
        <route edges="-E1 -E0"/>
    </vehicle>
    <vehicle id="E0__2__background.0" type="background" depart="121.54" departLane="random">
        <route edges="E0 E1"/>
    </vehicle>
    <vehicle id="-E1__2__ego.0" type="ego" depart="121.72" departLane="random">
        <route edges="-E1 -E0"/>
    </vehicle>
    <vehicle id="E0__2__background.1" type="background" depart="123.43" departLane="random">
        <route edges="E0 E1"/>
    </vehicle>
    <vehicle id="E0__2__background.2" type="background" depart="123.47" departLane="random">
        <route edges="E0 E1"/>
    </vehicle>
    <vehicle id="-E3__2__background.0" type="background" depart="124.84" departLane="random">
        <route edges="-E3 E2"/>
    </vehicle>
    <vehicle id="E0__2__background.3" type="background" depart="130.17" departLane="random">
        <route edges="E0 E1"/>
    </vehicle>
    <vehicle id="E0__2__background.4" type="background" depart="132.29" departLane="random">
        <route edges="E0 E1"/>
    </vehicle>
    <vehicle id="E0__2__background.5" type="background" depart="132.41" departLane="random">
        <route edges="E0 E1"/>
    </vehicle>
    <vehicle id="E0__2__background.6" type="background" depart="133.67" departLane="random">
        <route edges="E0 E1"/>
    </vehicle>
    <vehicle id="-E1__2__background.2" type="background" depart="134.01" departLane="random">
        <route edges="-E1 -E0"/>
    </vehicle>
    <vehicle id="E0__2__background.7" type="background" depart="136.46" departLane="random">
        <route edges="E0 E1"/>
    </vehicle>
    <vehicle id="E0__2__background.8" type="background" depart="136.73" departLane="random">
        <route edges="E0 E1"/>
    </vehicle>
    <vehicle id="E0__2__background.9" type="background" depart="140.50" departLane="random">
        <route edges="E0 E1"/>
    </vehicle>
    <vehicle id="-E1__2__background.3" type="background" depart="143.16" departLane="random">
        <route edges="-E1 -E0"/>
    </vehicle>
    <vehicle id="-E2__2__background.0" type="background" depart="145.80" departLane="random">
        <route edges="-E2 E3"/>
    </vehicle>
    <vehicle id="-E1__2__background.4" type="background" depart="145.86" departLane="random">
        <route edges="-E1 -E0"/>
    </vehicle>
    <vehicle id="-E1__2__background.5" type="background" depart="147.35" departLane="random">
        <route edges="-E1 E3"/>
    </vehicle>
    <vehicle id="-E1__2__background.6" type="background" depart="151.85" departLane="random">
        <route edges="-E1 -E0"/>
    </vehicle>
    <vehicle id="-E1__2__background.7" type="background" depart="155.70" departLane="random">
        <route edges="-E1 -E0"/>
    </vehicle>
    <vehicle id="E0__2__background.10" type="background" depart="157.85" departLane="random">
        <route edges="E0 E1"/>
    </vehicle>
    <vehicle id="-E1__2__background.8" type="background" depart="159.52" departLane="random">
        <route edges="-E1 -E0"/>
    </vehicle>
    <vehicle id="-E3__2__background.1" type="background" depart="162.11" departLane="random">
        <route edges="-E3 E2"/>
    </vehicle>
    <vehicle id="E0__2__ego.0" type="ego" depart="162.87" departLane="random">
        <route edges="E0 E1"/>
    </vehicle>
    <vehicle id="-E1__2__background.9" type="background" depart="164.98" departLane="random">
        <route edges="-E1 -E0"/>
    </vehicle>
    <vehicle id="E0__2__background.11" type="background" depart="165.90" departLane="random">
        <route edges="E0 E1"/>
    </vehicle>
    <vehicle id="-E1__2__background.10" type="background" depart="167.92" departLane="random">
        <route edges="-E1 -E0"/>
    </vehicle>
    <vehicle id="-E1__2__background.11" type="background" depart="170.44" departLane="random">
        <route edges="-E1 -E0"/>
    </vehicle>
    <vehicle id="E0__2__background.12" type="background" depart="170.49" departLane="random">
        <route edges="E0 E1"/>
    </vehicle>
    <vehicle id="-E1__2__background.12" type="background" depart="172.24" departLane="random">
        <route edges="-E1 E2"/>
    </vehicle>
    <vehicle id="-E2__2__background.1" type="background" depart="178.72" departLane="random">
        <route edges="-E2 E3"/>
    </vehicle>
    <vehicle id="-E1__3__background.0" type="background" depart="180.29" departLane="random">
        <route edges="-E1 -E0"/>
    </vehicle>
    <vehicle id="-E1__3__background.1" type="background" depart="188.46" departLane="random">
        <route edges="-E1 -E0"/>
    </vehicle>
    <vehicle id="-E1__3__background.2" type="background" depart="188.53" departLane="random">
        <route edges="-E1 -E0"/>
    </vehicle>
    <vehicle id="-E1__3__background.3" type="background" depart="194.15" departLane="random">
        <route edges="-E1 -E0"/>
    </vehicle>
    <vehicle id="E0__3__background.0" type="background" depart="194.36" departLane="random">
        <route edges="E0 E1"/>
    </vehicle>
    <vehicle id="E0__3__background.1" type="background" depart="196.26" departLane="random">
        <route edges="E0 E1"/>
    </vehicle>
    <vehicle id="-E2__3__background.0" type="background" depart="197.86" departLane="random">
        <route edges="-E2 E3"/>
    </vehicle>
    <vehicle id="-E1__3__background.4" type="background" depart="199.56" departLane="random">
        <route edges="-E1 -E0"/>
    </vehicle>
    <vehicle id="-E1__3__background.5" type="background" depart="204.00" departLane="random">
        <route edges="-E1 -E0"/>
    </vehicle>
    <vehicle id="E0__3__background.2" type="background" depart="204.69" departLane="random">
        <route edges="E0 E1"/>
    </vehicle>
    <vehicle id="-E1__3__background.6" type="background" depart="205.38" departLane="random">
        <route edges="-E1 -E0"/>
    </vehicle>
    <vehicle id="-E1__3__background.7" type="background" depart="208.54" departLane="random">
        <route edges="-E1 -E0"/>
    </vehicle>
    <vehicle id="E0__3__background.3" type="background" depart="210.51" departLane="random">
        <route edges="E0 E1"/>
    </vehicle>
    <vehicle id="-E1__3__background.8" type="background" depart="211.76" departLane="random">
        <route edges="-E1 -E0"/>
    </vehicle>
    <vehicle id="-E1__3__background.9" type="background" depart="211.94" departLane="random">
        <route edges="-E1 -E0"/>
    </vehicle>
    <vehicle id="-E1__3__background.10" type="background" depart="212.29" departLane="random">
        <route edges="-E1 E2"/>
    </vehicle>
    <vehicle id="-E3__3__background.0" type="background" depart="213.35" departLane="random">
        <route edges="-E3 E2"/>
    </vehicle>
    <vehicle id="-E1__3__background.11" type="background" depart="215.15" departLane="random">
        <route edges="-E1 -E0"/>
    </vehicle>
    <vehicle id="E0__3__background.4" type="background" depart="217.85" departLane="random">
        <route edges="E0 E1"/>
    </vehicle>
    <vehicle id="E0__3__background.5" type="background" depart="219.82" departLane="random">
        <route edges="E0 E3"/>
    </vehicle>
    <vehicle id="E0__3__background.6" type="background" depart="222.53" departLane="random">
        <route edges="E0 E1"/>
    </vehicle>
    <vehicle id="-E2__3__background.1" type="background" depart="222.62" departLane="random">
        <route edges="-E2 E3"/>
    </vehicle>
    <vehicle id="E0__3__ego.0" type="ego" depart="223.32" departLane="random">
        <route edges="E0 E1"/>
    </vehicle>
    <vehicle id="E0__3__background.7" type="background" depart="223.99" departLane="random">
        <route edges="E0 E3"/>
    </vehicle>
    <vehicle id="E0__3__background.8" type="background" depart="224.08" departLane="random">
        <route edges="E0 E1"/>
    </vehicle>
    <vehicle id="-E3__3__background.1" type="background" depart="224.42" departLane="random">
        <route edges="-E3 E2"/>
    </vehicle>
    <vehicle id="E0__3__background.9" type="background" depart="225.08" departLane="random">
        <route edges="E0 E1"/>
    </vehicle>
    <vehicle id="E0__3__background.10" type="background" depart="225.09" departLane="random">
        <route edges="E0 E1"/>
    </vehicle>
    <vehicle id="E0__3__background.11" type="background" depart="227.20" departLane="random">
        <route edges="E0 E3"/>
    </vehicle>
    <vehicle id="-E1__3__background.12" type="background" depart="229.49" departLane="random">
        <route edges="-E1 -E0"/>
    </vehicle>
    <vehicle id="E0__3__background.12" type="background" depart="233.82" departLane="random">
        <route edges="E0 E1"/>
    </vehicle>
    <vehicle id="-E1__3__ego.0" type="ego" depart="237.22" departLane="random">
        <route edges="-E1 -E0"/>
    </vehicle>
    <vehicle id="E0__4__background.0" type="background" depart="243.44" departLane="random">
        <route edges="E0 E1"/>
    </vehicle>
    <vehicle id="E0__4__background.1" type="background" depart="243.47" departLane="random">
        <route edges="E0 E1"/>
    </vehicle>
    <vehicle id="-E1__4__background.0" type="background" depart="244.98" departLane="random">
        <route edges="-E1 -E0"/>
    </vehicle>
    <vehicle id="-E1__4__background.1" type="background" depart="245.02" departLane="random">
        <route edges="-E1 -E0"/>
    </vehicle>
    <vehicle id="E0__4__background.2" type="background" depart="245.34" departLane="random">
        <route edges="E0 E1"/>
    </vehicle>
    <vehicle id="E0__4__background.3" type="background" depart="246.85" departLane="random">
        <route edges="E0 E1"/>
    </vehicle>
    <vehicle id="-E1__4__background.2" type="background" depart="247.40" departLane="random">
        <route edges="-E1 -E0"/>
    </vehicle>
    <vehicle id="-E1__4__background.3" type="background" depart="249.68" departLane="random">
        <route edges="-E1 -E0"/>
    </vehicle>
    <vehicle id="E0__4__background.4" type="background" depart="250.71" departLane="random">
        <route edges="E0 E2"/>
    </vehicle>
    <vehicle id="-E1__4__background.4" type="background" depart="253.00" departLane="random">
        <route edges="-E1 -E0"/>
    </vehicle>
    <vehicle id="E0__4__background.5" type="background" depart="253.15" departLane="random">
        <route edges="E0 E1"/>
    </vehicle>
    <vehicle id="E0__4__background.6" type="background" depart="253.62" departLane="random">
        <route edges="E0 E1"/>
    </vehicle>
    <vehicle id="-E3__4__background.0" type="background" depart="253.90" departLane="random">
        <route edges="-E3 E2"/>
    </vehicle>
    <vehicle id="-E2__4__background.0" type="background" depart="264.06" departLane="random">
        <route edges="-E2 E3"/>
    </vehicle>
    <vehicle id="-E2__4__background.1" type="background" depart="266.84" departLane="random">
        <route edges="-E2 E3"/>
    </vehicle>
    <vehicle id="-E1__4__background.5" type="background" depart="271.63" departLane="random">
        <route edges="-E1 E2"/>
    </vehicle>
    <vehicle id="E0__4__background.7" type="background" depart="272.85" departLane="random">
        <route edges="E0 E1"/>
    </vehicle>
    <vehicle id="-E1__4__background.6" type="background" depart="273.36" departLane="random">
        <route edges="-E1 -E0"/>
    </vehicle>
    <vehicle id="E0__4__background.8" type="background" depart="273.56" departLane="random">
        <route edges="E0 E1"/>
    </vehicle>
    <vehicle id="-E1__4__background.7" type="background" depart="273.90" departLane="random">
        <route edges="-E1 -E0"/>
    </vehicle>
    <vehicle id="E0__4__ego.0" type="ego" depart="274.35" departLane="random">
        <route edges="E0 E1"/>
    </vehicle>
    <vehicle id="-E1__4__background.8" type="background" depart="279.12" departLane="random">
        <route edges="-E1 -E0"/>
    </vehicle>
    <vehicle id="-E1__4__background.9" type="background" depart="279.75" departLane="random">
        <route edges="-E1 -E0"/>
    </vehicle>
    <vehicle id="E0__4__background.9" type="background" depart="282.32" departLane="random">
        <route edges="E0 E1"/>
    </vehicle>
    <vehicle id="E0__4__background.10" type="background" depart="284.33" departLane="random">
        <route edges="E0 E1"/>
    </vehicle>
    <vehicle id="-E1__4__background.10" type="background" depart="285.69" departLane="random">
        <route edges="-E1 -E0"/>
    </vehicle>
    <vehicle id="E0__4__background.11" type="background" depart="285.79" departLane="random">
        <route edges="E0 E1"/>
    </vehicle>
    <vehicle id="-E3__4__background.1" type="background" depart="287.47" departLane="random">
        <route edges="-E3 E2"/>
    </vehicle>
    <vehicle id="-E1__4__background.11" type="background" depart="288.47" departLane="random">
        <route edges="-E1 -E0"/>
    </vehicle>
    <vehicle id="E0__4__background.12" type="background" depart="295.68" departLane="random">
        <route edges="E0 E1"/>
    </vehicle>
    <vehicle id="-E1__4__ego.0" type="ego" depart="296.13" departLane="random">
        <route edges="-E1 -E0"/>
    </vehicle>
    <vehicle id="-E1__4__background.12" type="background" depart="297.06" departLane="random">
        <route edges="-E1 -E0"/>
    </vehicle>
    <vehicle id="-E2__5__background.0" type="background" depart="302.06" departLane="random">
        <route edges="-E2 E3"/>
    </vehicle>
    <vehicle id="E0__5__background.0" type="background" depart="302.73" departLane="random">
        <route edges="E0 E2"/>
    </vehicle>
    <vehicle id="-E1__5__background.0" type="background" depart="310.24" departLane="random">
        <route edges="-E1 -E0"/>
    </vehicle>
    <vehicle id="-E1__5__background.1" type="background" depart="317.80" departLane="random">
        <route edges="-E1 -E0"/>
    </vehicle>
    <vehicle id="-E1__5__background.2" type="background" depart="317.94" departLane="random">
        <route edges="-E1 -E0"/>
    </vehicle>
    <vehicle id="-E1__5__background.3" type="background" depart="323.13" departLane="random">
        <route edges="-E1 -E0"/>
    </vehicle>
    <vehicle id="-E1__5__background.4" type="background" depart="323.17" departLane="random">
        <route edges="-E1 -E0"/>
    </vehicle>
    <vehicle id="-E1__5__background.5" type="background" depart="324.16" departLane="random">
        <route edges="-E1 -E0"/>
    </vehicle>
    <vehicle id="E0__5__background.1" type="background" depart="327.25" departLane="random">
        <route edges="E0 E1"/>
    </vehicle>
    <vehicle id="-E1__5__background.6" type="background" depart="330.66" departLane="random">
        <route edges="-E1 -E0"/>
    </vehicle>
    <vehicle id="-E1__5__ego.0" type="ego" depart="331.07" departLane="random">
        <route edges="-E1 -E0"/>
    </vehicle>
    <vehicle id="-E3__5__background.0" type="background" depart="331.56" departLane="random">
        <route edges="-E3 E2"/>
    </vehicle>
    <vehicle id="E0__5__ego.0" type="ego" depart="332.07" departLane="random">
        <route edges="E0 E1"/>
    </vehicle>
    <vehicle id="-E1__5__background.7" type="background" depart="332.14" departLane="random">
        <route edges="-E1 -E0"/>
    </vehicle>
    <vehicle id="-E1__5__background.8" type="background" depart="332.73" departLane="random">
        <route edges="-E1 -E0"/>
    </vehicle>
    <vehicle id="E0__5__background.2" type="background" depart="335.18" departLane="random">
        <route edges="E0 E1"/>
    </vehicle>
    <vehicle id="-E1__5__background.9" type="background" depart="336.77" departLane="random">
        <route edges="-E1 -E0"/>
    </vehicle>
    <vehicle id="-E1__5__background.10" type="background" depart="336.83" departLane="random">
        <route edges="-E1 -E0"/>
    </vehicle>
    <vehicle id="-E1__5__background.11" type="background" depart="337.89" departLane="random">
        <route edges="-E1 -E0"/>
    </vehicle>
    <vehicle id="E0__5__background.3" type="background" depart="339.24" departLane="random">
        <route edges="E0 E1"/>
    </vehicle>
    <vehicle id="E0__5__background.4" type="background" depart="341.94" departLane="random">
        <route edges="E0 E1"/>
    </vehicle>
    <vehicle id="E0__5__background.5" type="background" depart="346.58" departLane="random">
        <route edges="E0 E1"/>
    </vehicle>
    <vehicle id="-E1__5__background.12" type="background" depart="347.50" departLane="random">
        <route edges="-E1 -E0"/>
    </vehicle>
    <vehicle id="E0__5__background.6" type="background" depart="348.73" departLane="random">
        <route edges="E0 E1"/>
    </vehicle>
    <vehicle id="E0__5__background.7" type="background" depart="348.84" departLane="random">
        <route edges="E0 E1"/>
    </vehicle>
    <vehicle id="E0__5__background.8" type="background" depart="352.10" departLane="random">
        <route edges="E0 E1"/>
    </vehicle>
    <vehicle id="E0__5__background.9" type="background" depart="355.96" departLane="random">
        <route edges="E0 E1"/>
    </vehicle>
    <vehicle id="E0__5__background.10" type="background" depart="358.04" departLane="random">
        <route edges="E0 E1"/>
    </vehicle>
    <vehicle id="-E3__5__background.1" type="background" depart="358.13" departLane="random">
        <route edges="-E3 E2"/>
    </vehicle>
    <vehicle id="E0__5__background.11" type="background" depart="358.25" departLane="random">
        <route edges="E0 E3"/>
    </vehicle>
    <vehicle id="E0__5__background.12" type="background" depart="358.92" departLane="random">
        <route edges="E0 E1"/>
    </vehicle>
    <vehicle id="-E2__5__background.1" type="background" depart="359.89" departLane="random">
        <route edges="-E2 E3"/>
    </vehicle>
    <vehicle id="-E3__6__background.0" type="background" depart="361.71" departLane="random">
        <route edges="-E3 E2"/>
    </vehicle>
    <vehicle id="-E1__6__background.0" type="background" depart="364.42" departLane="random">
        <route edges="-E1 -E0"/>
    </vehicle>
    <vehicle id="-E3__6__background.1" type="background" depart="367.76" departLane="random">
        <route edges="-E3 E2"/>
    </vehicle>
    <vehicle id="-E3__6__background.2" type="background" depart="368.42" departLane="random">
        <route edges="-E3 E2"/>
    </vehicle>
    <vehicle id="-E2__6__background.0" type="background" depart="369.40" departLane="random">
        <route edges="-E2 E3"/>
    </vehicle>
    <vehicle id="-E2__6__background.1" type="background" depart="370.00" departLane="random">
        <route edges="-E2 E3"/>
    </vehicle>
    <vehicle id="-E2__6__background.2" type="background" depart="370.39" departLane="random">
        <route edges="-E2 E3"/>
    </vehicle>
    <vehicle id="-E2__6__background.3" type="background" depart="375.69" departLane="random">
        <route edges="-E2 E3"/>
    </vehicle>
    <vehicle id="-E2__6__background.4" type="background" depart="377.02" departLane="random">
        <route edges="-E2 E1"/>
    </vehicle>
    <vehicle id="-E2__6__background.5" type="background" depart="380.50" departLane="random">
        <route edges="-E2 E3"/>
    </vehicle>
    <vehicle id="-E3__6__background.3" type="background" depart="382.48" departLane="random">
        <route edges="-E3 E2"/>
    </vehicle>
    <vehicle id="-E3__6__background.4" type="background" depart="383.69" departLane="random">
        <route edges="-E3 E2"/>
    </vehicle>
    <vehicle id="-E2__6__background.6" type="background" depart="383.93" departLane="random">